<?xml version="1.0" encoding="UTF-8"?>

<!-- generated on 2022-07-13 01:08:54 by Eclipse SUMO netconvert Version 1.13.0
<configuration xmlns:xsi="http://www.w3.org/2001/XMLSchema-instance" xsi:noNamespaceSchemaLocation="http://sumo.dlr.de/xsd/netconvertConfiguration.xsd">

    <input>
        <type-files value="osmNetconvert.typ.xml,osmNetconvertUrbanDe.typ.xml,osmNetconvertPedestrians.typ.xml,osmNetconvertBicycle.typ.xml,osmNetconvertBicycle.typ.xml,osmNetconvertShips.typ.xml,osmNetconvertRailUsage.typ.xml,osmNetconvertBidiRail.typ.xml,osmNetconvertAirport.typ.xml"/>
        <osm-files value="map.osm"/>
    </input>

    <output>
        <output-file value="melbcbd.net.xml"/>
    </output>

    <projection>
        <proj.utm value="true"/>
    </projection>

    <processing>
        <geometry.remove value="true"/>
        <roundabouts.guess value="true"/>
    </processing>

    <tls_building>
        <tls.discard-simple value="true"/>
        <tls.join value="true"/>
        <tls.guess-signals value="true"/>
    </tls_building>

    <ramp_guessing>
        <ramps.guess value="true"/>
    </ramp_guessing>

    <junctions>
        <junctions.join value="true"/>
    </junctions>

    <report>
        <aggregate-warnings value="5"/>
    </report>

</configuration>
-->

<net version="1.9" junctionCornerDetail="5" limitTurnSpeed="5.50" xmlns:xsi="http://www.w3.org/2001/XMLSchema-instance" xsi:noNamespaceSchemaLocation="http://sumo.dlr.de/xsd/net_file.xsd">

    <location netOffset="-322427.81,4190592.34" convBoundary="0.00,0.00,876.81,1073.53" origBoundary="144.924813,-37.845553,144.993057,-37.799329" projParameter="+proj=utm +zone=55 +ellps=WGS84 +datum=WGS84 +units=m +no_defs"/>

    <type id="aeroway.highway_strip" priority="36" numLanes="1" speed="100.00" allow="emergency authority" oneway="0"/>
    <type id="aeroway.parking_position" priority="31" numLanes="1" speed="13.89" allow="emergency authority" oneway="0"/>
    <type id="aeroway.runway" priority="35" numLanes="1" speed="100.00" allow="emergency authority" oneway="0"/>
    <type id="aeroway.stopway" priority="30" numLanes="1" speed="13.89" allow="authority" oneway="0"/>
    <type id="aeroway.taxilane" priority="34" numLanes="1" speed="27.78" allow="emergency authority" oneway="0"/>
    <type id="aeroway.taxiway" priority="32" numLanes="1" speed="27.78" allow="emergency authority" oneway="0"/>
    <type id="cycleway.lane" allow="bicycle" bikeLaneWidth="1.00"/>
    <type id="cycleway.opposite_lane" allow="bicycle" bikeLaneWidth="1.00"/>
    <type id="cycleway.opposite_track" allow="bicycle" bikeLaneWidth="1.50"/>
    <type id="cycleway.track" allow="bicycle" bikeLaneWidth="1.50"/>
    <type id="highway.bridleway" priority="1" numLanes="1" speed="2.78" allow="pedestrian" oneway="1" width="2.00"/>
    <type id="highway.bus_guideway" priority="1" numLanes="1" speed="13.89" allow="bus" oneway="1"/>
    <type id="highway.cycleway" priority="1" numLanes="1" speed="8.33" allow="bicycle" oneway="0" width="1.00"/>
    <type id="highway.footway" priority="1" numLanes="1" speed="2.78" allow="pedestrian" oneway="1" width="2.00"/>
    <type id="highway.ford" priority="1" numLanes="1" speed="2.78" allow="army" oneway="0"/>
    <type id="highway.living_street" priority="2" numLanes="1" speed="2.78" disallow="tram rail_urban rail rail_electric rail_fast ship" oneway="0"/>
    <type id="highway.motorway" priority="14" numLanes="2" speed="27.78" allow="private emergency authority army vip passenger hov taxi bus coach delivery truck trailer motorcycle evehicle custom1 custom2" oneway="1"/>
    <type id="highway.motorway_link" priority="9" numLanes="1" speed="16.67" allow="private emergency authority army vip passenger hov taxi bus coach delivery truck trailer motorcycle evehicle custom1 custom2" oneway="1"/>
    <type id="highway.path" priority="1" numLanes="1" speed="2.78" allow="pedestrian bicycle" oneway="0" width="2.00"/>
    <type id="highway.pedestrian" priority="1" numLanes="1" speed="2.78" allow="pedestrian" oneway="1" width="2.00"/>
    <type id="highway.primary" priority="12" numLanes="2" speed="13.89" disallow="pedestrian tram rail_urban rail rail_electric rail_fast ship" oneway="0" sidewalkWidth="3.00"/>
    <type id="highway.primary_link" priority="7" numLanes="1" speed="13.89" disallow="pedestrian tram rail_urban rail rail_electric rail_fast ship" oneway="0" sidewalkWidth="3.00"/>
    <type id="highway.raceway" priority="15" numLanes="2" speed="83.33" allow="vip" oneway="0"/>
    <type id="highway.residential" priority="3" numLanes="1" speed="13.89" disallow="pedestrian tram rail_urban rail rail_electric rail_fast ship" oneway="0" sidewalkWidth="2.00"/>
    <type id="highway.secondary" priority="11" numLanes="1" speed="13.89" disallow="pedestrian tram rail_urban rail rail_electric rail_fast ship" oneway="0" sidewalkWidth="3.00"/>
    <type id="highway.secondary_link" priority="6" numLanes="1" speed="13.89" disallow="pedestrian tram rail_urban rail rail_electric rail_fast ship" oneway="0" sidewalkWidth="3.00"/>
    <type id="highway.service" priority="1" numLanes="1" speed="5.56" allow="pedestrian delivery bicycle" oneway="0"/>
    <type id="highway.stairs" priority="1" numLanes="1" speed="1.39" allow="pedestrian" oneway="1" width="2.00"/>
    <type id="highway.step" priority="1" numLanes="1" speed="1.39" allow="pedestrian" oneway="1" width="2.00"/>
    <type id="highway.steps" priority="1" numLanes="1" speed="1.39" allow="pedestrian" oneway="1" width="2.00"/>
    <type id="highway.tertiary" priority="10" numLanes="1" speed="13.89" disallow="pedestrian tram rail_urban rail rail_electric rail_fast ship" oneway="0" sidewalkWidth="3.00"/>
    <type id="highway.tertiary_link" priority="5" numLanes="1" speed="13.89" disallow="pedestrian tram rail_urban rail rail_electric rail_fast ship" oneway="0" sidewalkWidth="2.00"/>
    <type id="highway.track" priority="1" numLanes="1" speed="5.56" allow="pedestrian motorcycle moped bicycle" oneway="0"/>
    <type id="highway.trunk" priority="13" numLanes="2" speed="13.89" disallow="pedestrian bicycle tram rail_urban rail rail_electric rail_fast ship" oneway="0"/>
    <type id="highway.trunk_link" priority="8" numLanes="1" speed="13.89" disallow="pedestrian bicycle tram rail_urban rail rail_electric rail_fast ship" oneway="0"/>
    <type id="highway.unclassified" priority="4" numLanes="1" speed="13.89" disallow="pedestrian tram rail_urban rail rail_electric rail_fast ship" oneway="0" sidewalkWidth="2.00"/>
    <type id="highway.unsurfaced" priority="1" numLanes="1" speed="8.33" disallow="tram rail_urban rail rail_electric rail_fast ship" oneway="0"/>
    <type id="railway.highspeed" priority="21" numLanes="1" speed="69.44" allow="rail_fast" oneway="1"/>
    <type id="railway.light_rail" priority="19" numLanes="1" speed="27.78" allow="rail_urban" oneway="0"/>
    <type id="railway.preserved" priority="16" numLanes="1" speed="27.78" allow="rail" oneway="0"/>
    <type id="railway.rail" priority="20" numLanes="1" speed="44.44" allow="rail" oneway="0"/>
    <type id="railway.subway" priority="18" numLanes="1" speed="27.78" allow="rail_urban" oneway="0"/>
    <type id="railway.tram" priority="17" numLanes="1" speed="13.89" allow="tram" oneway="0"/>
    <type id="route.ferry" priority="2" numLanes="1" speed="10.00" allow="ship" oneway="0" width="5.00"/>
    <type id="usage.branch" disallow="all" oneway="1"/>
    <type id="usage.industrial" disallow="all" oneway="1"/>
    <type id="usage.main" disallow="all" oneway="1"/>
    <type id="usage.military" disallow="all" oneway="1"/>
    <type id="usage.test" disallow="all" oneway="1"/>
    <type id="usage.tourism" disallow="all" oneway="1"/>
    <type id="waterway.canal" priority="1" numLanes="1" speed="10.00" allow="ship" oneway="0" width="5.00"/>
    <type id="waterway.river" priority="1" numLanes="1" speed="10.00" allow="ship" oneway="0" width="7.00"/>

    <edge id=":119398557_0" function="internal">
        <lane id=":119398557_0_0" index="0" disallow="pedestrian tram rail_urban rail rail_electric rail_fast ship" speed="3.65" length="4.67" shape="238.59,825.99 237.31,825.33 236.83,824.58 237.14,823.74 238.24,822.81"/>
    </edge>
    <edge id=":1423639543_0" function="internal">
        <lane id=":1423639543_0_0" index="0" disallow="bicycle tram rail_urban rail rail_electric rail_fast ship" speed="3.65" length="4.67" shape="388.90,751.19 389.54,749.90 390.28,749.40 391.12,749.69 392.07,750.78"/>
    </edge>
    <edge id=":538134826_0" function="internal">
        <lane id=":538134826_0_0" index="0" disallow="pedestrian tram rail_urban rail rail_electric rail_fast ship" speed="3.65" length="4.67" shape="448.51,797.71 449.81,798.32 450.32,799.06 450.04,799.91 448.97,800.87"/>
    </edge>
    <edge id=":7405873910_0" function="internal">
        <lane id=":7405873910_0_0" index="0" disallow="bicycle tram rail_urban rail rail_electric rail_fast ship" speed="3.65" length="4.67" shape="406.29,854.23 405.67,855.53 404.94,856.04 404.09,855.76 403.12,854.69"/>
    </edge>
    <edge id=":cluster_2266762223_2266762233_31560856_8677150757_8998978799_8998978800_9049380556_9049380557_9049380558_0" function="internal">
        <lane id=":cluster_2266762223_2266762233_31560856_8677150757_8998978799_8998978800_9049380556_9049380557_9049380558_0_0" index="0" disallow="pedestrian bicycle tram rail_urban rail rail_electric rail_fast ship" speed="6.95" length="10.40" shape="409.94,809.84 407.08,810.65 405.16,812.10 404.19,814.18 404.15,816.91"/>
    </edge>
    <edge id=":cluster_2266762223_2266762233_31560856_8677150757_8998978799_8998978800_9049380556_9049380557_9049380558_1" function="internal">
        <lane id=":cluster_2266762223_2266762233_31560856_8677150757_8998978799_8998978800_9049380556_9049380557_9049380558_1_0" index="0" disallow="pedestrian tram rail_urban rail rail_electric rail_fast ship" speed="11.11" length="22.92" shape="409.94,809.84 387.21,813.00"/>
        <lane id=":cluster_2266762223_2266762233_31560856_8677150757_8998978799_8998978800_9049380556_9049380557_9049380558_1_1" index="1" disallow="pedestrian tram rail_urban rail rail_electric rail_fast ship" speed="11.11" length="22.92" shape="409.47,806.67 386.80,809.83"/>
    </edge>
    <edge id=":cluster_2266762223_2266762233_31560856_8677150757_8998978799_8998978800_9049380556_9049380557_9049380558_3" function="internal">
        <lane id=":cluster_2266762223_2266762233_31560856_8677150757_8998978799_8998978800_9049380556_9049380557_9049380558_3_0" index="0" disallow="pedestrian bicycle tram rail_urban rail rail_electric rail_fast ship" speed="9.54" length="5.44" shape="409.47,806.67 404.03,806.71"/>
    </edge>
    <edge id=":cluster_2266762223_2266762233_31560856_8677150757_8998978799_8998978800_9049380556_9049380557_9049380558_4" function="internal">
        <lane id=":cluster_2266762223_2266762233_31560856_8677150757_8998978799_8998978800_9049380556_9049380557_9049380558_4_0" index="0" disallow="pedestrian tram rail_urban rail rail_electric rail_fast ship" speed="3.65" length="1.44" shape="409.47,806.67 408.17,806.05"/>
    </edge>
    <edge id=":cluster_2266762223_2266762233_31560856_8677150757_8998978799_8998978800_9049380556_9049380557_9049380558_22" function="internal">
        <lane id=":cluster_2266762223_2266762233_31560856_8677150757_8998978799_8998978800_9049380556_9049380557_9049380558_22_0" index="0" disallow="pedestrian bicycle tram rail_urban rail rail_electric rail_fast ship" speed="9.54" length="15.40" shape="404.03,806.71 403.68,806.72 399.30,804.93 396.34,801.32 394.78,795.88"/>
    </edge>
    <edge id=":cluster_2266762223_2266762233_31560856_8677150757_8998978799_8998978800_9049380556_9049380557_9049380558_23" function="internal">
        <lane id=":cluster_2266762223_2266762233_31560856_8677150757_8998978799_8998978800_9049380556_9049380557_9049380558_23_0" index="0" disallow="pedestrian tram rail_urban rail rail_electric rail_fast ship" speed="3.65" length="3.23" shape="408.17,806.05 407.65,805.32 407.93,804.47 409.00,803.50"/>
    </edge>
    <edge id=":cluster_2266762223_2266762233_31560856_8677150757_8998978799_8998978800_9049380556_9049380557_9049380558_5" function="internal">
        <lane id=":cluster_2266762223_2266762233_31560856_8677150757_8998978799_8998978800_9049380556_9049380557_9049380558_5_0" index="0" allow="tram" speed="13.89" length="22.83" shape="408.99,803.40 386.37,806.53"/>
    </edge>
    <edge id=":cluster_2266762223_2266762233_31560856_8677150757_8998978799_8998978800_9049380556_9049380557_9049380558_6" function="internal">
        <lane id=":cluster_2266762223_2266762233_31560856_8677150757_8998978799_8998978800_9049380556_9049380557_9049380558_6_0" index="0" disallow="pedestrian bicycle tram rail_urban rail rail_electric rail_fast ship" speed="6.21" length="8.23" shape="404.25,794.30 404.85,797.13 405.76,799.08 406.99,800.15 408.53,800.34"/>
    </edge>
    <edge id=":cluster_2266762223_2266762233_31560856_8677150757_8998978799_8998978800_9049380556_9049380557_9049380558_7" function="internal">
        <lane id=":cluster_2266762223_2266762233_31560856_8677150757_8998978799_8998978800_9049380556_9049380557_9049380558_7_0" index="0" disallow="bicycle tram rail_urban rail rail_electric rail_fast ship" speed="16.67" length="22.62" shape="404.25,794.30 404.67,801.17 404.23,806.09 403.78,810.77 404.15,816.91"/>
        <lane id=":cluster_2266762223_2266762233_31560856_8677150757_8998978799_8998978800_9049380556_9049380557_9049380558_7_1" index="1" disallow="bicycle tram rail_urban rail rail_electric rail_fast ship" speed="16.67" length="22.62" shape="401.10,794.83 401.51,801.66 401.07,806.55 400.61,811.20 400.98,817.33"/>
    </edge>
    <edge id=":cluster_2266762223_2266762233_31560856_8677150757_8998978799_8998978800_9049380556_9049380557_9049380558_9" function="internal">
        <lane id=":cluster_2266762223_2266762233_31560856_8677150757_8998978799_8998978800_9049380556_9049380557_9049380558_9_0" index="0" disallow="pedestrian bicycle tram rail_urban rail rail_electric rail_fast ship" speed="9.58" length="6.30" shape="397.94,795.35 397.89,801.06 397.65,801.60"/>
    </edge>
    <edge id=":cluster_2266762223_2266762233_31560856_8677150757_8998978799_8998978800_9049380556_9049380557_9049380558_10" function="internal">
        <lane id=":cluster_2266762223_2266762233_31560856_8677150757_8998978799_8998978800_9049380556_9049380557_9049380558_10_0" index="0" disallow="bicycle tram rail_urban rail rail_electric rail_fast ship" speed="3.65" length="1.44" shape="397.94,795.35 397.35,796.67"/>
    </edge>
    <edge id=":cluster_2266762223_2266762233_31560856_8677150757_8998978799_8998978800_9049380556_9049380557_9049380558_24" function="internal">
        <lane id=":cluster_2266762223_2266762233_31560856_8677150757_8998978799_8998978800_9049380556_9049380557_9049380558_24_0" index="0" disallow="pedestrian bicycle tram rail_urban rail rail_electric rail_fast ship" speed="9.58" length="14.54" shape="397.65,801.60 396.01,805.37 392.32,808.29 386.80,809.83"/>
    </edge>
    <edge id=":cluster_2266762223_2266762233_31560856_8677150757_8998978799_8998978800_9049380556_9049380557_9049380558_25" function="internal">
        <lane id=":cluster_2266762223_2266762233_31560856_8677150757_8998978799_8998978800_9049380556_9049380557_9049380558_25_0" index="0" disallow="bicycle tram rail_urban rail rail_electric rail_fast ship" speed="3.65" length="3.23" shape="397.35,796.67 396.62,797.20 395.77,796.93 394.78,795.88"/>
    </edge>
    <edge id=":cluster_2266762223_2266762233_31560856_8677150757_8998978799_8998978800_9049380556_9049380557_9049380558_11" function="internal">
        <lane id=":cluster_2266762223_2266762233_31560856_8677150757_8998978799_8998978800_9049380556_9049380557_9049380558_11_0" index="0" disallow="pedestrian bicycle tram rail_urban rail rail_electric rail_fast ship" speed="6.91" length="10.33" shape="385.97,803.48 388.76,802.72 390.63,801.29 391.58,799.19 391.62,796.41"/>
    </edge>
    <edge id=":cluster_2266762223_2266762233_31560856_8677150757_8998978799_8998978800_9049380556_9049380557_9049380558_12" function="internal">
        <lane id=":cluster_2266762223_2266762233_31560856_8677150757_8998978799_8998978800_9049380556_9049380557_9049380558_12_0" index="0" disallow="pedestrian tram rail_urban rail rail_electric rail_fast ship" speed="11.11" length="22.81" shape="385.97,803.48 408.53,800.34"/>
        <lane id=":cluster_2266762223_2266762233_31560856_8677150757_8998978799_8998978800_9049380556_9049380557_9049380558_12_1" index="1" disallow="pedestrian tram rail_urban rail rail_electric rail_fast ship" speed="11.11" length="22.81" shape="386.38,806.65 409.00,803.50"/>
    </edge>
    <edge id=":cluster_2266762223_2266762233_31560856_8677150757_8998978799_8998978800_9049380556_9049380557_9049380558_14" function="internal">
        <lane id=":cluster_2266762223_2266762233_31560856_8677150757_8998978799_8998978800_9049380556_9049380557_9049380558_14_0" index="0" disallow="pedestrian bicycle tram rail_urban rail rail_electric rail_fast ship" speed="9.57" length="4.91" shape="386.38,806.65 391.29,806.69"/>
    </edge>
    <edge id=":cluster_2266762223_2266762233_31560856_8677150757_8998978799_8998978800_9049380556_9049380557_9049380558_15" function="internal">
        <lane id=":cluster_2266762223_2266762233_31560856_8677150757_8998978799_8998978800_9049380556_9049380557_9049380558_15_0" index="0" disallow="pedestrian tram rail_urban rail rail_electric rail_fast ship" speed="3.65" length="1.44" shape="386.38,806.65 387.68,807.29"/>
    </edge>
    <edge id=":cluster_2266762223_2266762233_31560856_8677150757_8998978799_8998978800_9049380556_9049380557_9049380558_26" function="internal">
        <lane id=":cluster_2266762223_2266762233_31560856_8677150757_8998978799_8998978800_9049380556_9049380557_9049380558_26_0" index="0" disallow="pedestrian bicycle tram rail_urban rail rail_electric rail_fast ship" speed="9.57" length="15.65" shape="391.29,806.69 392.11,806.69 396.45,808.48 399.41,812.03 400.98,817.33"/>
    </edge>
    <edge id=":cluster_2266762223_2266762233_31560856_8677150757_8998978799_8998978800_9049380556_9049380557_9049380558_27" function="internal">
        <lane id=":cluster_2266762223_2266762233_31560856_8677150757_8998978799_8998978800_9049380556_9049380557_9049380558_27_0" index="0" disallow="pedestrian tram rail_urban rail rail_electric rail_fast ship" speed="3.65" length="3.23" shape="387.68,807.29 388.18,808.03 387.89,808.88 386.80,809.83"/>
    </edge>
    <edge id=":cluster_2266762223_2266762233_31560856_8677150757_8998978799_8998978800_9049380556_9049380557_9049380558_16" function="internal">
        <lane id=":cluster_2266762223_2266762233_31560856_8677150757_8998978799_8998978800_9049380556_9049380557_9049380558_16_0" index="0" allow="tram" speed="13.89" length="22.89" shape="386.80,809.80 409.47,806.64"/>
    </edge>
    <edge id=":cluster_2266762223_2266762233_31560856_8677150757_8998978799_8998978800_9049380556_9049380557_9049380558_17" function="internal">
        <lane id=":cluster_2266762223_2266762233_31560856_8677150757_8998978799_8998978800_9049380556_9049380557_9049380558_17_0" index="0" disallow="pedestrian bicycle tram rail_urban rail rail_electric rail_fast ship" speed="6.13" length="7.82" shape="391.47,818.59 390.87,815.98 389.97,814.18 388.75,813.18 387.21,813.00"/>
    </edge>
    <edge id=":cluster_2266762223_2266762233_31560856_8677150757_8998978799_8998978800_9049380556_9049380557_9049380558_18" function="internal">
        <lane id=":cluster_2266762223_2266762233_31560856_8677150757_8998978799_8998978800_9049380556_9049380557_9049380558_18_0" index="0" disallow="bicycle tram rail_urban rail rail_electric rail_fast ship" speed="16.67" length="22.31" shape="391.47,818.59 391.01,811.89 391.45,807.10 391.94,802.51 391.62,796.41"/>
        <lane id=":cluster_2266762223_2266762233_31560856_8677150757_8998978799_8998978800_9049380556_9049380557_9049380558_18_1" index="1" disallow="bicycle tram rail_urban rail rail_electric rail_fast ship" speed="16.67" length="22.31" shape="394.64,818.17 394.18,811.43 394.61,806.61 395.10,801.99 394.78,795.88"/>
    </edge>
    <edge id=":cluster_2266762223_2266762233_31560856_8677150757_8998978799_8998978800_9049380556_9049380557_9049380558_20" function="internal">
        <lane id=":cluster_2266762223_2266762233_31560856_8677150757_8998978799_8998978800_9049380556_9049380557_9049380558_20_0" index="0" disallow="pedestrian bicycle tram rail_urban rail rail_electric rail_fast ship" speed="9.56" length="6.05" shape="397.81,817.75 397.85,812.24 398.07,811.74"/>
    </edge>
    <edge id=":cluster_2266762223_2266762233_31560856_8677150757_8998978799_8998978800_9049380556_9049380557_9049380558_21" function="internal">
        <lane id=":cluster_2266762223_2266762233_31560856_8677150757_8998978799_8998978800_9049380556_9049380557_9049380558_21_0" index="0" disallow="bicycle tram rail_urban rail rail_electric rail_fast ship" speed="3.65" length="1.44" shape="397.81,817.75 398.44,816.45"/>
    </edge>
    <edge id=":cluster_2266762223_2266762233_31560856_8677150757_8998978799_8998978800_9049380556_9049380557_9049380558_28" function="internal">
        <lane id=":cluster_2266762223_2266762233_31560856_8677150757_8998978799_8998978800_9049380556_9049380557_9049380558_28_0" index="0" disallow="pedestrian bicycle tram rail_urban rail rail_electric rail_fast ship" speed="9.56" length="14.58" shape="398.07,811.74 399.72,808.03 403.44,805.11 409.00,803.50"/>
    </edge>
    <edge id=":cluster_2266762223_2266762233_31560856_8677150757_8998978799_8998978800_9049380556_9049380557_9049380558_29" function="internal">
        <lane id=":cluster_2266762223_2266762233_31560856_8677150757_8998978799_8998978800_9049380556_9049380557_9049380558_29_0" index="0" disallow="bicycle tram rail_urban rail rail_electric rail_fast ship" speed="3.65" length="3.23" shape="398.44,816.45 399.18,815.95 400.03,816.24 400.98,817.33"/>
    </edge>

    <edge id="-117060728#2" from="538134826" to="cluster_2266762223_2266762233_31560856_8677150757_8998978799_8998978800_9049380556_9049380557_9049380558" priority="12" type="highway.primary" shape="448.74,799.29 411.79,804.71 406.56,805.48">
        <lane id="-117060728#2_0" index="0" allow="pedestrian" speed="11.11" length="39.92" width="3.00" shape="449.89,807.10 412.94,812.53 410.39,812.90"/>
        <lane id="-117060728#2_1" index="1" disallow="pedestrian tram rail_urban rail rail_electric rail_fast ship" speed="11.11" length="39.92" shape="449.44,804.04 412.49,809.46 409.94,809.84"/>
        <lane id="-117060728#2_2" index="2" disallow="pedestrian tram rail_urban rail rail_electric rail_fast ship" speed="11.11" length="39.92" shape="448.97,800.87 412.03,806.29 409.47,806.67"/>
        <param key="ref" value="26"/>
    </edge>
    <edge id="-337541591#1" from="cluster_2266762223_2266762233_31560856_8677150757_8998978799_8998978800_9049380556_9049380557_9049380558" to="119398557" priority="12" type="highway.primary" shape="389.44,807.87 385.43,808.39 323.22,816.55 302.88,818.88 281.53,820.25 260.05,822.04 238.42,824.40">
        <lane id="-337541591#1_0" index="0" allow="pedestrian" speed="11.11" length="149.20" width="3.00" shape="387.62,816.07 386.46,816.23 324.18,824.40 303.58,826.75 282.11,828.13 260.80,829.90 239.27,832.26"/>
        <lane id="-337541591#1_1" index="1" disallow="pedestrian tram rail_urban rail rail_electric rail_fast ship" speed="11.11" length="149.20" shape="387.21,813.00 386.06,813.15 323.81,821.32 303.30,823.66 281.89,825.04 260.51,826.82 238.94,829.18"/>
        <lane id="-337541591#1_2" index="2" disallow="pedestrian tram rail_urban rail rail_electric rail_fast ship" speed="11.11" length="149.20" shape="386.80,809.83 385.64,809.98 323.42,818.14 303.02,820.47 281.65,821.85 260.20,823.63 238.59,825.99"/>
        <param key="ref" value="26"/>
    </edge>
    <edge id="-4759022#2" from="1423639543" to="cluster_2266762223_2266762233_31560856_8677150757_8998978799_8998978800_9049380556_9049380557_9049380558" priority="13" type="highway.trunk" shape="390.48,750.98 393.33,772.99 393.62,775.14 396.07,793.49 397.62,805.04">
        <lane id="-4759022#2_0" index="0" disallow="bicycle tram rail_urban rail rail_electric rail_fast ship" speed="16.67" length="44.84" shape="398.42,749.96 401.26,771.96 401.55,774.08 404.00,792.43 404.25,794.30"/>
        <lane id="-4759022#2_1" index="1" disallow="bicycle tram rail_urban rail rail_electric rail_fast ship" speed="16.67" length="44.84" shape="395.25,750.37 398.09,772.38 398.38,774.50 400.83,792.85 401.10,794.83"/>
        <lane id="-4759022#2_2" index="2" disallow="bicycle tram rail_urban rail rail_electric rail_fast ship" speed="16.67" length="44.84" shape="392.07,750.78 394.92,772.79 395.20,774.93 397.66,793.28 397.94,795.35"/>
        <param key="ref" value="29"/>
    </edge>
    <edge id="-792170395#1" from="cluster_2266762223_2266762233_31560856_8677150757_8998978799_8998978800_9049380556_9049380557_9049380558" to="7405873910" priority="13" type="highway.trunk" shape="398.07,808.30 399.73,819.88 403.38,845.19 404.71,854.46">
        <lane id="-792170395#1_0" index="0" disallow="bicycle tram rail_urban rail rail_electric rail_fast ship" speed="16.67" length="37.27" shape="404.15,816.91 404.48,819.20 408.13,844.51 409.46,853.78"/>
        <lane id="-792170395#1_1" index="1" disallow="bicycle tram rail_urban rail rail_electric rail_fast ship" speed="16.67" length="37.27" shape="400.98,817.33 401.32,819.65 404.96,844.97 406.29,854.23"/>
        <param key="ref" value="29"/>
    </edge>
    <edge id="117060728#1" from="cluster_2266762223_2266762233_31560856_8677150757_8998978799_8998978800_9049380556_9049380557_9049380558" to="538134826" priority="12" type="highway.primary" shape="406.56,805.48 411.79,804.71 448.74,799.29">
        <lane id="117060728#1_0" index="0" allow="pedestrian" speed="11.11" length="39.93" width="3.00" shape="408.08,797.27 410.65,796.89 447.59,791.47"/>
        <lane id="117060728#1_1" index="1" disallow="pedestrian tram rail_urban rail rail_electric rail_fast ship" speed="11.11" length="39.93" shape="408.53,800.34 411.10,799.96 448.04,794.54"/>
        <lane id="117060728#1_2" index="2" disallow="pedestrian tram rail_urban rail rail_electric rail_fast ship" speed="11.11" length="39.93" shape="409.00,803.50 411.56,803.13 448.51,797.71"/>
        <param key="ref" value="26"/>
    </edge>
    <edge id="217038809#0" from="2266764302" to="cluster_2266762223_2266762233_31560856_8677150757_8998978799_8998978800_9049380556_9049380557_9049380558" priority="17" type="railway.tram" spreadType="center" shape="0.71,860.21 52.74,852.73 138.83,840.37 213.74,829.61 238.64,826.04 260.20,823.68 281.66,821.90 303.03,820.53 323.42,818.19 383.83,810.19 389.66,809.42">
        <lane id="217038809#0_0" index="0" allow="tram" speed="13.89" length="389.46" shape="0.71,860.21 52.74,852.73 138.83,840.37 213.74,829.61 238.64,826.04 260.20,823.68 281.66,821.90 303.03,820.53 323.42,818.19 383.83,810.19 386.80,809.80"/>
    </edge>
    <edge id="217038809#3" from="cluster_2266762223_2266762233_31560856_8677150757_8998978799_8998978800_9049380556_9049380557_9049380558" to="2266762193" priority="17" type="railway.tram" spreadType="center" shape="406.75,807.03 448.94,800.92 456.36,799.84 467.75,798.19 528.78,789.33 534.77,788.51 543.73,787.17 586.67,780.93 629.20,774.85 649.36,771.84 655.86,770.89 688.42,766.16 720.76,762.48 772.02,754.03 821.39,746.72 855.75,741.88 876.81,738.82">
        <lane id="217038809#3_0" index="0" allow="tram" speed="13.89" length="472.26" shape="409.47,806.64 448.94,800.92 456.36,799.84 467.75,798.19 528.78,789.33 534.77,788.51 543.73,787.17 586.67,780.93 629.20,774.85 649.36,771.84 655.86,770.89 688.42,766.16 720.76,762.48 772.02,754.03 821.39,746.72 855.75,741.88 876.81,738.82"/>
    </edge>
    <edge id="217406327#0" from="2266762219" to="cluster_2266762223_2266762233_31560856_8677150757_8998978799_8998978800_9049380556_9049380557_9049380558" priority="17" type="railway.tram" spreadType="center" shape="876.33,735.55 854.31,738.64 820.95,743.59 771.55,750.76 727.96,757.09 683.03,763.89 662.86,766.54 652.03,767.88 628.75,771.49 586.19,777.78 543.25,783.90 534.29,785.20 528.28,785.99 467.30,794.93 455.90,796.58 448.49,797.65 412.40,802.91 406.37,803.78">
        <lane id="217406327#0_0" index="0" allow="tram" speed="13.89" length="472.25" shape="876.33,735.55 854.31,738.64 820.95,743.59 771.55,750.76 727.96,757.09 683.03,763.89 662.86,766.54 652.03,767.88 628.75,771.49 586.19,777.78 543.25,783.90 534.29,785.20 528.28,785.99 467.30,794.93 455.90,796.58 448.49,797.65 412.40,802.91 408.99,803.40"/>
    </edge>
    <edge id="217406327#3" from="cluster_2266762223_2266762233_31560856_8677150757_8998978799_8998978800_9049380556_9049380557_9049380558" to="2266764307" priority="17" type="railway.tram" spreadType="center" shape="389.12,806.16 323.02,814.91 302.66,817.23 281.41,818.59 259.89,820.38 238.20,822.76 236.02,823.06 213.53,826.30 138.35,837.10 0.00,856.97">
        <lane id="217406327#3_0" index="0" allow="tram" speed="13.89" length="389.74" shape="386.37,806.53 323.02,814.91 302.66,817.23 281.41,818.59 259.89,820.38 238.20,822.76 236.02,823.06 213.53,826.30 138.35,837.10 -0.00,856.97"/>
    </edge>
    <edge id="337541591#0" from="119398557" to="cluster_2266762223_2266762233_31560856_8677150757_8998978799_8998978800_9049380556_9049380557_9049380558" priority="12" type="highway.primary" shape="238.42,824.40 260.05,822.04 281.53,820.25 302.88,818.88 323.22,816.55 385.43,808.39 389.44,807.87">
        <lane id="337541591#0_0" index="0" allow="pedestrian" speed="11.11" length="149.00" width="3.00" shape="237.56,816.55 259.29,814.18 280.95,812.37 302.18,811.01 322.26,808.71 384.41,800.56 385.57,800.41"/>