<?xml version="1.0" encoding="UTF-8"?>

<!-- generated on 2022-03-23 21:41:32 by Eclipse SUMO netconvert Version 1.12.0
<configuration xmlns:xsi="http://www.w3.org/2001/XMLSchema-instance" xsi:noNamespaceSchemaLocation="http://sumo.dlr.de/xsd/netconvertConfiguration.xsd">

    <input>
        <type-files value="osmNetconvert.typ.xml,osmNetconvertUrbanDe.typ.xml,osmNetconvertPedestrians.typ.xml,osmNetconvertBicycle.typ.xml,osmNetconvertBicycle.typ.xml,osmNetconvertShips.typ.xml,osmNetconvertRailUsage.typ.xml,osmNetconvertBidiRail.typ.xml,osmNetconvertAirport.typ.xml"/>
        <osm-files value="map.osm"/>
    </input>

    <output>
        <output-file value="melbcbd.net.xml"/>
    </output>

    <projection>
        <proj.utm value="true"/>
    </projection>

    <processing>
        <geometry.remove value="true"/>
        <roundabouts.guess value="true"/>
    </processing>

    <tls_building>
        <tls.discard-simple value="true"/>
        <tls.join value="true"/>
        <tls.guess-signals value="true"/>
    </tls_building>

    <ramp_guessing>
        <ramps.guess value="true"/>
    </ramp_guessing>

    <junctions>
        <junctions.join value="true"/>
    </junctions>

    <report>
        <aggregate-warnings value="5"/>
    </report>

</configuration>
-->

<net version="1.9" junctionCornerDetail="5" limitTurnSpeed="5.50" xmlns:xsi="http://www.w3.org/2001/XMLSchema-instance" xsi:noNamespaceSchemaLocation="http://sumo.dlr.de/xsd/net_file.xsd">

    <location netOffset="-548628.47,-5272040.84" convBoundary="0.00,0.00,1880.47,2062.50" origBoundary="-122.352860,47.599809,-122.328074,47.618509" projParameter="+proj=utm +zone=10 +ellps=WGS84 +datum=WGS84 +units=m +no_defs"/>

    <type id="aeroway.highway_strip" priority="36" numLanes="1" speed="100.00" allow="emergency authority" oneway="0"/>
    <type id="aeroway.parking_position" priority="31" numLanes="1" speed="13.89" allow="emergency authority" oneway="0"/>
    <type id="aeroway.runway" priority="35" numLanes="1" speed="100.00" allow="emergency authority" oneway="0"/>
    <type id="aeroway.stopway" priority="30" numLanes="1" speed="13.89" allow="authority" oneway="0"/>
    <type id="aeroway.taxilane" priority="34" numLanes="1" speed="27.78" allow="emergency authority" oneway="0"/>
    <type id="aeroway.taxiway" priority="32" numLanes="1" speed="27.78" allow="emergency authority" oneway="0"/>
    <type id="cycleway.lane" allow="bicycle" bikeLaneWidth="1.00"/>
    <type id="cycleway.opposite_lane" allow="bicycle" bikeLaneWidth="1.00"/>
    <type id="cycleway.opposite_track" allow="bicycle" bikeLaneWidth="1.50"/>
    <type id="cycleway.track" allow="bicycle" bikeLaneWidth="1.50"/>
    <type id="cycleway.track|highway.secondary" priority="11" numLanes="1" speed="13.89" disallow="pedestrian tram rail_urban rail rail_electric rail_fast ship" oneway="0" sidewalkWidth="3.00" bikeLaneWidth="1.50"/>
    <type id="highway.bridleway" priority="1" numLanes="1" speed="2.78" allow="pedestrian" oneway="1" width="2.00"/>
    <type id="highway.bus_guideway" priority="1" numLanes="1" speed="13.89" allow="bus" oneway="1"/>
    <type id="highway.cycleway" priority="1" numLanes="1" speed="8.33" allow="bicycle" oneway="0" width="1.00"/>
    <type id="highway.footway" priority="1" numLanes="1" speed="2.78" allow="pedestrian" oneway="1" width="2.00"/>
    <type id="highway.ford" priority="1" numLanes="1" speed="2.78" allow="army" oneway="0"/>
    <type id="highway.living_street" priority="2" numLanes="1" speed="2.78" disallow="tram rail_urban rail rail_electric rail_fast ship" oneway="0"/>
    <type id="highway.motorway" priority="14" numLanes="2" speed="27.78" allow="private emergency authority army vip passenger hov taxi bus coach delivery truck trailer motorcycle evehicle custom1 custom2" oneway="1"/>
    <type id="highway.motorway_link" priority="9" numLanes="1" speed="16.67" allow="private emergency authority army vip passenger hov taxi bus coach delivery truck trailer motorcycle evehicle custom1 custom2" oneway="1"/>
    <type id="highway.path" priority="1" numLanes="1" speed="2.78" allow="pedestrian bicycle" oneway="0" width="2.00"/>
    <type id="highway.pedestrian" priority="1" numLanes="1" speed="2.78" allow="pedestrian" oneway="1" width="2.00"/>
    <type id="highway.primary" priority="12" numLanes="2" speed="13.89" disallow="pedestrian tram rail_urban rail rail_electric rail_fast ship" oneway="0" sidewalkWidth="3.00"/>
    <type id="highway.primary_link" priority="7" numLanes="1" speed="13.89" disallow="pedestrian tram rail_urban rail rail_electric rail_fast ship" oneway="0" sidewalkWidth="3.00"/>
    <type id="highway.raceway" priority="15" numLanes="2" speed="83.33" allow="vip" oneway="0"/>
    <type id="highway.residential" priority="3" numLanes="1" speed="13.89" disallow="pedestrian tram rail_urban rail rail_electric rail_fast ship" oneway="0" sidewalkWidth="2.00"/>
    <type id="highway.secondary" priority="11" numLanes="1" speed="13.89" disallow="pedestrian tram rail_urban rail rail_electric rail_fast ship" oneway="0" sidewalkWidth="3.00"/>
    <type id="highway.secondary_link" priority="6" numLanes="1" speed="13.89" disallow="pedestrian tram rail_urban rail rail_electric rail_fast ship" oneway="0" sidewalkWidth="3.00"/>
    <type id="highway.service" priority="1" numLanes="1" speed="5.56" allow="pedestrian delivery bicycle" oneway="0"/>
    <type id="highway.stairs" priority="1" numLanes="1" speed="1.39" allow="pedestrian" oneway="1" width="2.00"/>
    <type id="highway.step" priority="1" numLanes="1" speed="1.39" allow="pedestrian" oneway="1" width="2.00"/>
    <type id="highway.steps" priority="1" numLanes="1" speed="1.39" allow="pedestrian" oneway="1" width="2.00"/>
    <type id="highway.tertiary" priority="10" numLanes="1" speed="13.89" disallow="pedestrian tram rail_urban rail rail_electric rail_fast ship" oneway="0" sidewalkWidth="3.00"/>
    <type id="highway.tertiary_link" priority="5" numLanes="1" speed="13.89" disallow="pedestrian tram rail_urban rail rail_electric rail_fast ship" oneway="0" sidewalkWidth="2.00"/>
    <type id="highway.track" priority="1" numLanes="1" speed="5.56" allow="pedestrian motorcycle moped bicycle" oneway="0"/>
    <type id="highway.trunk" priority="13" numLanes="2" speed="13.89" disallow="pedestrian bicycle tram rail_urban rail rail_electric rail_fast ship" oneway="0"/>
    <type id="highway.trunk_link" priority="8" numLanes="1" speed="13.89" disallow="pedestrian bicycle tram rail_urban rail rail_electric rail_fast ship" oneway="0"/>
    <type id="highway.unclassified" priority="4" numLanes="1" speed="13.89" disallow="pedestrian tram rail_urban rail rail_electric rail_fast ship" oneway="0" sidewalkWidth="2.00"/>
    <type id="highway.unsurfaced" priority="1" numLanes="1" speed="8.33" disallow="tram rail_urban rail rail_electric rail_fast ship" oneway="0"/>
    <type id="railway.highspeed" priority="21" numLanes="1" speed="69.44" allow="rail_fast" oneway="1"/>
    <type id="railway.light_rail" priority="19" numLanes="1" speed="27.78" allow="rail_urban" oneway="0"/>
    <type id="railway.preserved" priority="16" numLanes="1" speed="27.78" allow="rail" oneway="0"/>
    <type id="railway.rail" priority="20" numLanes="1" speed="44.44" allow="rail" oneway="0"/>
    <type id="railway.subway" priority="18" numLanes="1" speed="27.78" allow="rail_urban" oneway="0"/>
    <type id="railway.tram" priority="17" numLanes="1" speed="13.89" allow="tram" oneway="0"/>
    <type id="route.ferry" priority="2" numLanes="1" speed="10.00" allow="ship" oneway="0" width="5.00"/>
    <type id="usage.branch" disallow="all" oneway="1"/>
    <type id="usage.industrial" disallow="all" oneway="1"/>
    <type id="usage.main" disallow="all" oneway="1"/>
    <type id="usage.military" disallow="all" oneway="1"/>
    <type id="usage.test" disallow="all" oneway="1"/>
    <type id="usage.tourism" disallow="all" oneway="1"/>
    <type id="waterway.canal" priority="1" numLanes="1" speed="10.00" allow="ship" oneway="0" width="5.00"/>
    <type id="waterway.river" priority="1" numLanes="1" speed="10.00" allow="ship" oneway="0" width="7.00"/>

    <edge id=":1801021555_0" function="internal">
        <lane id=":1801021555_0_0" index="0" allow="bicycle" speed="2.04" length="1.46" width="1.00" shape="0.34,2062.86 -0.10,2062.94 -0.36,2062.84 -0.44,2062.57 -0.34,2062.13"/>
    </edge>
    <edge id=":1841747325_0" function="internal">
        <lane id=":1841747325_0_0" index="0" allow="delivery bicycle" speed="5.56" length="9.33" shape="1053.74,1147.92 1048.81,1155.85"/>
    </edge>
    <edge id=":1841747325_1" function="internal">
        <lane id=":1841747325_1_0" index="0" allow="delivery bicycle" speed="5.56" length="10.13" shape="1053.74,1147.92 1051.95,1150.03 1049.91,1151.06 1047.61,1151.02 1045.06,1149.91"/>
    </edge>
    <edge id=":1841747325_2" function="internal">
        <lane id=":1841747325_2_0" index="0" allow="delivery bicycle" speed="3.65" length="4.67" shape="1053.74,1147.92 1052.43,1148.51 1051.54,1148.42 1051.07,1147.65 1051.04,1146.21"/>
    </edge>
    <edge id=":1841747325_3" function="internal">
        <lane id=":1841747325_3_0" index="0" allow="delivery bicycle" speed="5.06" length="5.01" shape="1046.74,1147.18 1048.00,1147.74 1049.14,1147.76 1050.15,1147.25 1051.04,1146.21"/>
    </edge>
    <edge id=":1841747325_4" function="internal">
        <lane id=":1841747325_4_0" index="0" allow="delivery bicycle" speed="5.56" length="10.15" shape="1046.74,1147.18 1048.88,1148.96 1049.94,1151.00 1049.92,1153.29 1048.81,1155.85"/>
    </edge>
    <edge id=":1841747325_5" function="internal">
        <lane id=":1841747325_5_0" index="0" allow="pedestrian delivery bicycle" speed="3.65" length="4.67" shape="1046.74,1147.18 1047.34,1148.50 1047.27,1149.39 1046.51,1149.86 1045.06,1149.91"/>
    </edge>
    <edge id=":1841747325_6" function="internal">
        <lane id=":1841747325_6_0" index="0" allow="delivery bicycle" speed="5.04" length="5.00" shape="1046.08,1154.17 1046.63,1152.92 1046.64,1151.79 1046.12,1150.79 1045.06,1149.91"/>
    </edge>
    <edge id=":1841747325_7" function="internal">
        <lane id=":1841747325_7_0" index="0" allow="delivery bicycle" speed="5.56" length="9.38" shape="1046.08,1154.17 1051.04,1146.21"/>
    </edge>
    <edge id=":1841747325_8" function="internal">
        <lane id=":1841747325_8_0" index="0" allow="delivery bicycle" speed="3.65" length="4.67" shape="1046.08,1154.17 1047.39,1153.57 1048.28,1153.65 1048.76,1154.40 1048.81,1155.85"/>
    </edge>
    <edge id=":1841747327_0" function="internal">
        <lane id=":1841747327_0_0" index="0" allow="delivery bicycle" speed="3.65" length="4.67" shape="1166.69,961.91 1168.00,961.32 1168.89,961.40 1169.36,962.16 1169.40,963.60"/>
    </edge>
    <edge id=":1841774895_0" function="internal">
        <lane id=":1841774895_0_0" index="0" allow="delivery bicycle" speed="6.86" length="10.16" shape="949.93,1135.54 947.81,1133.75 946.77,1131.70 946.81,1129.40 947.94,1126.86"/>
    </edge>
    <edge id=":1841774895_1" function="internal">
        <lane id=":1841774895_1_0" index="0" allow="delivery bicycle" speed="3.65" length="4.67" shape="950.65,1128.56 949.34,1129.15 948.45,1129.06 947.98,1128.30 947.94,1126.86"/>
    </edge>
    <edge id=":1841774917_0" function="internal">
        <lane id=":1841774917_0_0" index="0" allow="delivery bicycle" speed="3.65" length="4.67" shape="1083.87,909.86 1085.18,909.27 1086.07,909.36 1086.54,910.12 1086.58,911.56"/>
    </edge>
    <edge id=":2169065736_0" function="internal">
        <lane id=":2169065736_0_0" index="0" allow="pedestrian delivery bicycle" speed="3.65" length="4.67" shape="944.81,1045.25 944.21,1043.94 944.28,1043.05 945.04,1042.58 946.48,1042.52"/>
    </edge>
    <edge id=":2169065740_0" function="internal">
        <lane id=":2169065740_0_0" index="0" allow="pedestrian delivery bicycle" speed="3.65" length="4.67" shape="936.11,1059.62 935.52,1058.30 935.61,1057.41 936.38,1056.95 937.82,1056.91"/>
    </edge>
    <edge id=":2169065747_0" function="internal">
        <lane id=":2169065747_0_0" index="0" allow="delivery bicycle" speed="5.56" length="9.40" shape="990.07,1065.62 985.08,1073.59"/>
    </edge>
    <edge id=":2169065747_1" function="internal">
        <lane id=":2169065747_1_0" index="0" allow="delivery bicycle" speed="5.56" length="10.16" shape="990.07,1065.62 988.29,1067.73 986.24,1068.77 983.93,1068.73 981.37,1067.62"/>
    </edge>
    <edge id=":2169065747_2" function="internal">
        <lane id=":2169065747_2_0" index="0" allow="delivery bicycle" speed="3.65" length="4.67" shape="990.07,1065.62 988.76,1066.22 987.87,1066.13 987.40,1065.37 987.36,1063.92"/>
    </edge>
    <edge id=":2169065747_3" function="internal">
        <lane id=":2169065747_3_0" index="0" allow="delivery bicycle" speed="5.07" length="5.04" shape="983.04,1064.89 984.32,1065.45 985.46,1065.47 986.48,1064.97 987.36,1063.92"/>
    </edge>
    <edge id=":2169065747_4" function="internal">
        <lane id=":2169065747_4_0" index="0" allow="delivery bicycle" speed="5.56" length="10.21" shape="983.04,1064.89 985.20,1066.68 986.26,1068.73 986.22,1071.03 985.08,1073.59"/>
    </edge>
    <edge id=":2169065747_5" function="internal">
        <lane id=":2169065747_5_0" index="0" allow="pedestrian delivery bicycle" speed="3.65" length="4.67" shape="983.04,1064.89 983.64,1066.20 983.57,1067.09 982.81,1067.57 981.37,1067.62"/>
    </edge>
    <edge id=":2169065747_6" function="internal">
        <lane id=":2169065747_6_0" index="0" allow="delivery bicycle" speed="5.03" length="5.01" shape="982.37,1071.89 982.93,1070.63 982.95,1069.50 982.43,1068.50 981.37,1067.62"/>
    </edge>
    <edge id=":2169065747_7" function="internal">
        <lane id=":2169065747_7_0" index="0" allow="delivery bicycle" speed="5.56" length="9.40" shape="982.37,1071.89 987.36,1063.92"/>
    </edge>
    <edge id=":2169065747_8" function="internal">
        <lane id=":2169065747_8_0" index="0" allow="delivery bicycle" speed="3.65" length="4.67" shape="982.37,1071.89 983.69,1071.30 984.58,1071.38 985.04,1072.15 985.08,1073.59"/>
    </edge>
    <edge id=":2169065758_0" function="internal">
        <lane id=":2169065758_0_0" index="0" allow="delivery bicycle" speed="5.56" length="9.40" shape="980.85,1080.36 975.86,1088.32"/>
    </edge>
    <edge id=":2169065758_1" function="internal">
        <lane id=":2169065758_1_0" index="0" allow="delivery bicycle" speed="5.56" length="10.18" shape="980.85,1080.36 979.05,1082.49 977.00,1083.53 974.70,1083.48 972.15,1082.34"/>
    </edge>
    <edge id=":2169065758_2" function="internal">
        <lane id=":2169065758_2_0" index="0" allow="delivery bicycle" speed="3.65" length="4.67" shape="980.85,1080.36 979.53,1080.95 978.64,1080.86 978.17,1080.10 978.13,1078.66"/>
    </edge>
    <edge id=":2169065758_3" function="internal">
        <lane id=":2169065758_3_0" index="0" allow="delivery bicycle" speed="5.04" length="5.00" shape="973.86,1079.63 975.11,1080.19 976.24,1080.22 977.25,1079.71 978.13,1078.66"/>
    </edge>
    <edge id=":2169065758_4" function="internal">
        <lane id=":2169065758_4_0" index="0" allow="delivery bicycle" speed="5.56" length="10.16" shape="973.86,1079.63 975.98,1081.44 977.03,1083.49 976.98,1085.78 975.86,1088.32"/>
    </edge>
    <edge id=":2169065758_5" function="internal">
        <lane id=":2169065758_5_0" index="0" allow="pedestrian delivery bicycle" speed="3.65" length="4.67" shape="973.86,1079.63 974.45,1080.95 974.36,1081.84 973.59,1082.30 972.15,1082.34"/>
    </edge>
    <edge id=":2169065758_6" function="internal">
        <lane id=":2169065758_6_0" index="0" allow="delivery bicycle" speed="5.05" length="5.01" shape="973.14,1086.63 973.70,1085.37 973.72,1084.24 973.20,1083.23 972.15,1082.34"/>
    </edge>
    <edge id=":2169065758_7" function="internal">
        <lane id=":2169065758_7_0" index="0" allow="delivery bicycle" speed="5.56" length="9.40" shape="973.14,1086.63 978.13,1078.66"/>
    </edge>
    <edge id=":2169065758_8" function="internal">
        <lane id=":2169065758_8_0" index="0" allow="delivery bicycle" speed="3.65" length="4.67" shape="973.14,1086.63 974.46,1086.03 975.35,1086.12 975.81,1086.88 975.86,1088.32"/>
    </edge>
    <edge id=":2324752709_0" function="internal">
        <lane id=":2324752709_0_0" index="0" allow="pedestrian delivery bicycle" speed="3.65" length="4.67" shape="972.87,1271.19 971.45,1271.42 970.61,1271.10 970.36,1270.24 970.69,1268.84"/>
    </edge>
    <edge id=":439912341_0" function="internal">
        <lane id=":439912341_0_0" index="0" allow="delivery bicycle" speed="3.65" length="4.67" shape="1249.83,1014.03 1251.14,1013.44 1252.03,1013.53 1252.50,1014.30 1252.53,1015.74"/>
    </edge>
    <edge id=":4560893230_0" function="internal">
        <lane id=":4560893230_0_0" index="0" disallow="pedestrian tram rail_urban rail rail_electric rail_fast ship" speed="3.65" length="4.67" shape="1052.91,1238.28 1051.59,1238.87 1050.70,1238.78 1050.24,1238.01 1050.21,1236.57"/>
    </edge>
    <edge id=":4560936671_0" function="internal">
        <lane id=":4560936671_0_0" index="0" allow="bicycle" speed="3.31" length="4.67" shape="1122.63,1240.96 1123.23,1242.28 1123.14,1243.17 1122.37,1243.63 1120.93,1243.67"/>
    </edge>
    <edge id=":4560936681_0" function="internal">
        <lane id=":4560936681_0_0" index="0" allow="bicycle" speed="2.93" length="2.19" width="1.50" shape="1203.26,1139.89 1203.54,1140.50 1203.50,1140.92 1203.14,1141.14 1202.47,1141.16"/>
    </edge>
    <edge id=":53205952_0" function="internal">
        <lane id=":53205952_0_0" index="0" disallow="pedestrian tram rail_urban rail rail_electric rail_fast ship" speed="3.65" length="4.67" shape="1207.85,987.82 1209.17,987.23 1210.06,987.32 1210.52,988.09 1210.55,989.53"/>
    </edge>
    <edge id=":5320888970_0" function="internal">
        <lane id=":5320888970_0_0" index="0" allow="delivery bicycle" speed="5.56" length="5.12" shape="954.20,1122.89 951.48,1127.23"/>
    </edge>
    <edge id=":5320888970_1" function="internal">
        <lane id=":5320888970_1_0" index="0" allow="delivery bicycle" speed="3.65" length="1.44" shape="954.20,1122.89 952.89,1123.48"/>
    </edge>
    <edge id=":5320888970_4" function="internal">
        <lane id=":5320888970_4_0" index="0" allow="delivery bicycle" speed="3.65" length="3.23" shape="952.89,1123.48 952.00,1123.39 951.53,1122.63 951.49,1121.19"/>
    </edge>
    <edge id=":5320888970_2" function="internal">
        <lane id=":5320888970_2_0" index="0" allow="delivery bicycle" speed="5.56" length="5.12" shape="948.77,1125.53 951.49,1121.19"/>
    </edge>
    <edge id=":5320888970_3" function="internal">
        <lane id=":5320888970_3_0" index="0" allow="delivery bicycle" speed="3.65" length="1.44" shape="948.77,1125.53 950.09,1124.94"/>
    </edge>
    <edge id=":5320888970_5" function="internal">
        <lane id=":5320888970_5_0" index="0" allow="delivery bicycle" speed="3.65" length="3.23" shape="950.09,1124.94 950.98,1125.02 951.44,1125.78 951.48,1127.23"/>
    </edge>
    <edge id=":5320888971_0" function="internal">
        <lane id=":5320888971_0_0" index="0" allow="pedestrian delivery bicycle" speed="5.56" length="5.01" shape="944.39,1064.84 940.15,1062.17"/>
    </edge>
    <edge id=":5320888971_1" function="internal">
        <lane id=":5320888971_1_0" index="0" allow="pedestrian delivery bicycle" speed="3.65" length="1.44" shape="944.39,1064.84 943.80,1063.52"/>
    </edge>
    <edge id=":5320888971_4" function="internal">
        <lane id=":5320888971_4_0" index="0" allow="pedestrian delivery bicycle" speed="3.65" length="3.23" shape="943.80,1063.52 943.89,1062.63 944.65,1062.17 946.09,1062.13"/>
    </edge>
    <edge id=":5320888971_2" function="internal">
        <lane id=":5320888971_2_0" index="0" allow="pedestrian delivery bicycle" speed="5.56" length="5.01" shape="941.86,1059.46 946.09,1062.13"/>
    </edge>
    <edge id=":5320888971_3" function="internal">
        <lane id=":5320888971_3_0" index="0" allow="pedestrian delivery bicycle" speed="3.65" length="1.44" shape="941.86,1059.46 942.45,1060.78"/>
    </edge>
    <edge id=":5320888971_5" function="internal">
        <lane id=":5320888971_5_0" index="0" allow="pedestrian delivery bicycle" speed="3.65" length="3.23" shape="942.45,1060.78 942.36,1061.67 941.59,1062.13 940.15,1062.17"/>
    </edge>
    <edge id=":5320888972_0" function="internal">
        <lane id=":5320888972_0_0" index="0" allow="pedestrian delivery bicycle" speed="5.56" length="5.09" shape="953.49,1050.56 949.14,1047.90"/>
    </edge>
    <edge id=":5320888972_1" function="internal">
        <lane id=":5320888972_1_0" index="0" allow="pedestrian delivery bicycle" speed="3.65" length="1.44" shape="953.49,1050.56 952.88,1049.25"/>
    </edge>
    <edge id=":5320888972_4" function="internal">
        <lane id=":5320888972_4_0" index="0" allow="pedestrian delivery bicycle" speed="3.65" length="3.23" shape="952.88,1049.25 952.96,1048.36 953.72,1047.89 955.16,1047.83"/>
    </edge>
    <edge id=":5320888972_2" function="internal">
        <lane id=":5320888972_2_0" index="0" allow="pedestrian delivery bicycle" speed="5.56" length="5.10" shape="950.81,1045.17 955.16,1047.83"/>
    </edge>
    <edge id=":5320888972_3" function="internal">
        <lane id=":5320888972_3_0" index="0" allow="pedestrian delivery bicycle" speed="3.65" length="1.44" shape="950.81,1045.17 951.42,1046.48"/>
    </edge>
    <edge id=":5320888972_5" function="internal">
        <lane id=":5320888972_5_0" index="0" allow="pedestrian delivery bicycle" speed="3.65" length="3.23" shape="951.42,1046.48 951.34,1047.37 950.58,1047.85 949.14,1047.90"/>
    </edge>
    <edge id=":5321020971_0" function="internal">
        <lane id=":5321020971_0_0" index="0" disallow="pedestrian tram rail_urban rail rail_electric rail_fast ship" speed="11.18" length="5.10" shape="1044.71,1057.44 1047.44,1053.12"/>
        <lane id=":5321020971_0_1" index="1" disallow="pedestrian tram rail_urban rail rail_electric rail_fast ship" speed="11.18" length="5.10" shape="1047.42,1059.14 1050.14,1054.83"/>
        <lane id=":5321020971_0_2" index="2" disallow="pedestrian tram rail_urban rail rail_electric rail_fast ship" speed="11.18" length="5.10" shape="1050.13,1060.85 1052.85,1056.54"/>
    </edge>
    <edge id=":5321020973_0" function="internal">
        <lane id=":5321020973_0_0" index="0" allow="delivery bicycle" speed="5.56" length="5.03" shape="1166.25,968.64 1163.59,972.92"/>
    </edge>
    <edge id=":5321020973_1" function="internal">
        <lane id=":5321020973_1_0" index="0" allow="delivery bicycle" speed="3.65" length="1.44" shape="1166.25,968.64 1164.94,969.24"/>
    </edge>
    <edge id=":5321020973_4" function="internal">
        <lane id=":5321020973_4_0" index="0" allow="delivery bicycle" speed="3.65" length="3.23" shape="1164.94,969.24 1164.05,969.15 1163.58,968.39 1163.54,966.95"/>
    </edge>
    <edge id=":5321020973_2" function="internal">
        <lane id=":5321020973_2_0" index="0" allow="delivery bicycle" speed="5.56" length="5.04" shape="1160.87,971.22 1163.54,966.95"/>
    </edge>
    <edge id=":5321020973_3" function="internal">
        <lane id=":5321020973_3_0" index="0" allow="delivery bicycle" speed="3.65" length="1.44" shape="1160.87,971.22 1162.19,970.63"/>
    </edge>
    <edge id=":5321020973_5" function="internal">
        <lane id=":5321020973_5_0" index="0" allow="delivery bicycle" speed="3.65" length="3.23" shape="1162.19,970.63 1163.08,970.71 1163.54,971.47 1163.59,972.92"/>
    </edge>
    <edge id=":5321020975_0" function="internal">
        <lane id=":5321020975_0_0" index="0" allow="bicycle" speed="11.18" length="5.30" width="1.50" shape="1069.85,1058.04 1065.36,1055.22"/>
    </edge>
    <edge id=":5321020975_1" function="internal">
        <lane id=":5321020975_1_0" index="0" allow="bicycle" speed="3.31" length="2.16" shape="1069.85,1058.04 1069.26,1056.72 1069.33,1056.01"/>
    </edge>
    <edge id=":5321020975_4" function="internal">
        <lane id=":5321020975_4_0" index="0" allow="bicycle" speed="3.31" length="2.51" shape="1069.33,1056.01 1069.35,1055.83 1070.11,1055.37 1071.55,1055.33"/>
    </edge>
    <edge id=":5321020975_2" function="internal">
        <lane id=":5321020975_2_0" index="0" disallow="pedestrian tram rail_urban rail rail_electric rail_fast ship" speed="11.18" length="5.30" shape="1068.31,1050.52 1072.80,1053.34"/>
        <lane id=":5321020975_2_1" index="1" disallow="pedestrian tram rail_urban rail rail_electric rail_fast ship" speed="11.18" length="5.30" shape="1066.61,1053.23 1071.10,1056.05"/>
    </edge>
    <edge id=":5321020976_0" function="internal">
        <lane id=":5321020976_0_0" index="0" allow="bicycle" speed="11.18" length="5.26" width="1.50" shape="1043.93,1041.80 1039.48,1039.02"/>
    </edge>
    <edge id=":5321020976_1" function="internal">
        <lane id=":5321020976_1_0" index="0" allow="bicycle" speed="3.31" length="2.16" shape="1043.93,1041.80 1043.34,1040.49 1043.41,1039.78"/>
    </edge>
    <edge id=":5321020976_4" function="internal">
        <lane id=":5321020976_4_0" index="0" allow="bicycle" speed="3.31" length="2.51" shape="1043.41,1039.78 1043.43,1039.60 1044.19,1039.13 1045.63,1039.09"/>
    </edge>
    <edge id=":5321020976_2" function="internal">
        <lane id=":5321020976_2_0" index="0" disallow="pedestrian tram rail_urban rail rail_electric rail_fast ship" speed="11.18" length="5.26" shape="1042.42,1034.31 1046.87,1037.10"/>
        <lane id=":5321020976_2_1" index="1" disallow="pedestrian tram rail_urban rail rail_electric rail_fast ship" speed="11.18" length="5.26" shape="1040.72,1037.03 1045.18,1039.81"/>
    </edge>
    <edge id=":5321054290_0" function="internal">
        <lane id=":5321054290_0_0" index="0" disallow="pedestrian tram rail_urban rail rail_electric rail_fast ship" speed="11.18" length="5.68" shape="1081.40,1199.29 1078.36,1204.09"/>
        <lane id=":5321054290_0_1" index="1" disallow="pedestrian tram rail_urban rail rail_electric rail_fast ship" speed="11.18" length="5.68" shape="1078.70,1197.58 1075.66,1202.38"/>
    </edge>
    <edge id=":5321054290_2" function="internal">
        <lane id=":5321054290_2_0" index="0" disallow="pedestrian tram rail_urban rail rail_electric rail_fast ship" speed="11.18" length="5.68" shape="1070.25,1198.95 1073.29,1194.15"/>
        <lane id=":5321054290_2_1" index="1" disallow="pedestrian tram rail_urban rail rail_electric rail_fast ship" speed="11.18" length="5.68" shape="1072.96,1200.66 1076.00,1195.87"/>
    </edge>
    <edge id=":5321058668_0" function="internal">
        <lane id=":5321058668_0_0" index="0" allow="delivery bicycle" speed="6.71" length="5.15" shape="1248.85,1021.57 1246.10,1025.92"/>
    </edge>
    <edge id=":5321058668_1" function="internal">
        <lane id=":5321058668_1_0" index="0" allow="delivery bicycle" speed="3.65" length="1.44" shape="1248.85,1021.57 1247.54,1022.16"/>
    </edge>
    <edge id=":5321058668_4" function="internal">
        <lane id=":5321058668_4_0" index="0" allow="delivery bicycle" speed="3.65" length="3.23" shape="1247.54,1022.16 1246.65,1022.07 1246.18,1021.30 1246.15,1019.86"/>
    </edge>
    <edge id=":5321058668_2" function="internal">
        <lane id=":5321058668_2_0" index="0" allow="delivery bicycle" speed="6.71" length="5.15" shape="1243.40,1024.21 1246.15,1019.86"/>
    </edge>
    <edge id=":5321058668_3" function="internal">
        <lane id=":5321058668_3_0" index="0" allow="delivery bicycle" speed="3.65" length="1.44" shape="1243.40,1024.21 1244.71,1023.63"/>
    </edge>
    <edge id=":5321058668_5" function="internal">
        <lane id=":5321058668_5_0" index="0" allow="delivery bicycle" speed="3.65" length="3.23" shape="1244.71,1023.63 1245.60,1023.72 1246.07,1024.48 1246.10,1025.92"/>
    </edge>
    <edge id=":6363977383_0" function="internal">
        <lane id=":6363977383_0_0" index="0" allow="bicycle" speed="8.33" length="5.01" width="1.00" shape="1057.81,1059.63 1055.19,1063.90"/>
    </edge>
    <edge id=":6363977383_1" function="internal">
        <lane id=":6363977383_1_0" index="0" allow="bicycle" speed="2.04" length="0.73" width="1.00" shape="1057.81,1059.63 1057.40,1059.82 1057.12,1059.79"/>
    </edge>
    <edge id=":6363977383_4" function="internal">
        <lane id=":6363977383_4_0" index="0" allow="bicycle" speed="2.04" length="0.73" width="1.00" shape="1057.12,1059.79 1056.98,1059.55 1056.96,1059.10"/>
    </edge>
    <edge id=":6363977383_2" function="internal">
        <lane id=":6363977383_2_0" index="0" allow="bicycle" speed="8.33" length="5.01" width="1.00" shape="1054.34,1063.38 1056.96,1059.10"/>
    </edge>
    <edge id=":6363977383_3" function="internal">
        <lane id=":6363977383_3_0" index="0" allow="bicycle" speed="2.04" length="0.73" width="1.00" shape="1054.34,1063.38 1054.75,1063.19 1055.03,1063.21"/>
    </edge>
    <edge id=":6363977383_5" function="internal">
        <lane id=":6363977383_5_0" index="0" allow="bicycle" speed="2.04" length="0.73" width="1.00" shape="1055.03,1063.21 1055.17,1063.45 1055.19,1063.90"/>
    </edge>
    <edge id=":7604516011_0" function="internal">
        <lane id=":7604516011_0_0" index="0" allow="pedestrian delivery bicycle" speed="3.65" length="4.67" shape="1048.97,1084.79 1049.58,1086.09 1049.51,1086.99 1048.76,1087.46 1047.32,1087.53"/>
    </edge>
    <edge id=":7997620614_0" function="internal">
        <lane id=":7997620614_0_0" index="0" allow="bicycle" speed="2.04" length="1.46" width="1.00" shape="1703.14,35.15 1703.55,34.96 1703.83,34.98 1703.98,35.22 1703.99,35.67"/>
    </edge>
    <edge id=":8758984587_0" function="internal">
        <lane id=":8758984587_0_0" index="0" allow="pedestrian delivery bicycle" speed="5.56" length="6.53" shape="980.62,1262.65 979.60,1264.30 978.85,1265.40 977.97,1266.40 976.58,1267.74"/>
    </edge>