<?xml version="1.0" encoding="UTF-8"?>

<!-- generated on 2022-03-23 21:41:32 by Eclipse SUMO polyconvert Version 1.12.0
<configuration xmlns:xsi="http://www.w3.org/2001/XMLSchema-instance" xsi:noNamespaceSchemaLocation="http://sumo.dlr.de/xsd/polyconvertConfiguration.xsd">

    <input>
        <net-file value="melbcbd.net.xml"/>
        <osm-files value="map.osm"/>
    </input>

    <output>
        <output-file value="melbcbd.poly.xml"/>
    </output>

    <processing>
        <poi-layer-offset value="5"/>
    </processing>

</configuration>
-->

<additional xmlns:xsi="http://www.w3.org/2001/XMLSchema-instance" xsi:noNamespaceSchemaLocation="http://sumo.dlr.de/xsd/additional_file.xsd">
    <location netOffset="-548628.47,-5272040.84" convBoundary="0.00,0.00,1880.47,2062.50" origBoundary="-122.352860,47.599809,-122.328074,47.618509" projParameter="+proj=utm +zone=10 +ellps=WGS84 +datum=WGS84 +units=m +no_defs"/>

    <poly id="140628856" type="building" color="255,230,230" fill="1" layer="-1.00" shape="1126.100389,1034.067781 1106.887987,1064.135478 1135.685854,1082.231211 1154.544734,1052.205047 1126.100389,1034.067781"/>
    <poly id="173339734" type="building" color="255,230,230" fill="1" layer="-1.00" shape="1104.431380,1130.079481 1123.357114,1100.109361 1095.732804,1082.779487 1087.908034,1095.172186 1102.434137,1104.287761 1098.426624,1110.622225 1083.967793,1101.551692 1076.874515,1112.783613 1104.431380,1130.079481"/>
    <poly id="173339778" type="parking" color="184,184,179" fill="1" layer="-1.00" shape="1044.215337,1092.687991 1071.796929,1109.750506 1090.421459,1079.833288 1062.839776,1062.770686 1044.215337,1092.687991"/>
    <poly id="173339778#1" type="building" color="255,230,230" fill="1" layer="-1.00" shape="1044.215337,1092.687991 1071.796929,1109.750506 1090.421459,1079.833288 1062.839776,1062.770686 1044.215337,1092.687991"/>
    <poly id="206858891" type="parking" color="184,184,179" fill="1" layer="-1.00" shape="960.586057,1041.104714 941.218936,1071.794043 969.823184,1089.731700 989.190401,1059.042465 960.586057,1041.104714"/>
    <poly id="231360583" type="landuse" color="194,194,130" fill="1" layer="-3.00" shape="933.859988,1212.441852 935.048234,1213.241088 936.484533,1213.153268 937.559946,1212.195444 952.169407,1188.523389 940.656908,1181.212140 924.210513,1170.758013 912.853521,1188.478138 933.859988,1212.441852"/>
    <poly id="231361925" type="building" color="255,230,230" fill="1" layer="-1.00" shape="1081.455738,921.029730 1067.458966,943.228455 1069.746577,944.681733 1055.148488,967.775640 1052.718841,966.232241 1024.726115,1010.596521 1027.604420,1012.410479 1027.086348,1013.228545 1051.510143,1029.574958 1109.050141,938.437066 1088.236573,925.311081 1081.455738,921.029730"/>
    <poly id="231361933" type="building" color="255,230,230" fill="1" layer="-1.00" shape="979.325560,1009.998869 969.730172,1025.566537 998.425321,1043.438416 1008.267545,1028.017386 979.325560,1009.998869"/>
    <poly id="231361934" type="building" color="255,230,230" fill="1" layer="-1.00" shape="969.118174,1099.273112 955.555547,1120.897835 983.936123,1138.589144 997.498817,1116.964486 996.855789,1116.570003 969.118174,1099.273112"/>
    <poly id="231361935" type="building" color="255,230,230" fill="1" layer="-1.00" shape="969.669800,1089.208010 957.526097,1081.858019 944.848795,1101.900913 939.944085,1098.858278 952.584649,1078.715030 941.654180,1071.875545 940.906681,1071.391264 922.719978,1100.290130 951.099146,1118.170211 969.669800,1089.208010"/>
    <poly id="232079313" type="building" color="255,230,230" fill="1" layer="-1.00" shape="1186.216030,1050.675008 1166.841553,1081.207939 1161.295491,1089.907739 1159.765132,1093.084551 1160.705239,1097.416147 1163.692777,1099.631231 1186.073847,1113.937925 1195.294386,1099.189879 1214.445388,1068.432839 1186.216030,1050.675008"/>
    <poly id="232079584" type="parking" color="184,184,179" fill="1" layer="-1.00" shape="989.477947,1275.178752 991.762701,1276.954300 994.329211,1278.298779 997.095282,1279.155916 999.970920,1279.502718 1002.866034,1279.327303 1005.675317,1278.639888 1008.323521,1277.450947 1010.704959,1275.815153 1012.759129,1273.776449 1035.514932,1237.881258 1037.221675,1235.161614 1052.054679,1211.758457 1023.547945,1193.943471 979.991381,1263.872305 983.808369,1268.417301 989.477947,1275.178752"/>
    <poly id="232079584#1" type="building" color="255,230,230" fill="1" layer="-1.00" shape="989.477947,1275.178752 991.762701,1276.954300 994.329211,1278.298779 997.095282,1279.155916 999.970920,1279.502718 1002.866034,1279.327303 1005.675317,1278.639888 1008.323521,1277.450947 1010.704959,1275.815153 1012.759129,1273.776449 1035.514932,1237.881258 1037.221675,1235.161614 1052.054679,1211.758457 1023.547945,1193.943471 979.991381,1263.872305 983.808369,1268.417301 989.477947,1275.178752"/>
    <poly id="232079585" type="building" color="255,230,230" fill="1" layer="-1.00" shape="1035.915970,1169.630116 1035.213111,1169.201775 1041.173553,1159.471734 1039.364079,1158.367091 1040.781753,1156.056224 1036.519685,1153.463564 1035.996250,1153.147897 1034.746285,1155.182329 1031.590926,1153.254860 1030.851697,1154.448937 1022.522005,1149.376436 1024.640852,1145.926737 1013.425004,1139.084683 1004.210139,1154.110922 1034.216252,1172.405393 1035.915970,1169.630116"/>
    <poly id="232079586" type="building" color="255,230,230" fill="1" layer="-1.00" shape="1052.311399,1141.060881 1071.796929,1109.750506 1044.215337,1092.687991 1024.729901,1123.998457 1052.311399,1141.060881"/>
    <poly id="232079590" type="building" color="255,230,230" fill="1" layer="-1.00" shape="1057.110893,1144.091601 1048.585387,1157.589836 1038.833261,1173.033797 1061.343623,1187.163281 1066.389947,1190.329488 1084.667664,1161.387377 1075.853404,1155.854970 1061.716209,1146.976180 1057.110893,1144.091601"/>
    <poly id="232079592" type="building" color="255,230,230" fill="1" layer="-1.00" shape="1057.110893,1144.091601 1061.716209,1146.976180 1063.285627,1144.499894 1077.422920,1153.367574 1075.853404,1155.854970 1084.667664,1161.387377 1094.366659,1146.020840 1085.485029,1140.454501 1083.839308,1143.063506 1069.709609,1134.184760 1071.355231,1131.586865 1066.809841,1128.725019 1057.110893,1144.091601"/>
    <poly id="240586483" type="building" color="255,230,230" fill="1" layer="-1.00" shape="996.855789,1116.570003 1020.758260,1078.472718 1007.883742,1070.449523 993.020530,1061.175715 969.118174,1099.273112 996.855789,1116.570003"/>
    <poly id="240586486" type="parking" color="184,184,179" fill="1" layer="-1.00" shape="1024.679451,1125.509608 1016.740262,1138.123717 1043.647306,1154.946952 1051.586532,1142.332880 1024.679451,1125.509608"/>
    <poly id="240736161" type="building" color="255,230,230" fill="1" layer="-1.00" shape="1103.211479,999.939724 1091.484524,1018.634437 1091.065825,1018.375231 1074.309820,1045.096267 1100.881115,1061.661263 1102.421278,1062.619138 1130.912081,1017.181360 1120.071224,1010.420107 1110.995910,1024.891643 1108.336530,1029.136950 1101.772176,1025.046366 1104.431553,1020.801057 1113.499246,1006.340560 1103.211479,999.939724"/>
    <poly id="272966893" type="building" color="255,230,230" fill="1" layer="-1.00" shape="1109.299067,1270.475791 1286.266559,1383.100731 1271.724501,1405.816693 1301.841203,1424.991580 1318.394390,1399.136382 1379.255400,1437.870080 1391.626702,1418.547930 1398.916964,1407.162469 1410.138047,1389.642164 1351.354726,1352.237483 1366.689492,1328.283680 1335.137264,1308.195882 1320.259685,1331.431235 1142.648329,1218.399665 1130.003293,1238.142349 1123.962670,1247.571523 1109.299067,1270.475791"/>
    <poly id="356373906" type="commercial" color="209,209,204" fill="1" layer="-3.00" shape="877.052299,1160.443186 974.715698,1006.747539 1132.601045,1101.977698 1007.543066,1287.903110 1001.182640,1292.550422 977.296805,1266.094519 1023.468417,1191.808797 1033.519823,1175.633799 980.915611,1145.543387 935.781695,1218.026586 877.052299,1160.443186"/>
    <poly id="356386127" type="commercial" color="209,209,204" fill="1" layer="-3.00" shape="981.701705,992.213559 1017.936321,1015.317962 1081.696732,913.040413 1134.063570,946.475157 1101.342476,997.878702 1134.892385,1018.449049 1103.873780,1068.566707 1141.384261,1092.660861 1671.788330,235.633110 1644.144833,219.356419 1509.898445,218.800874 1409.221475,219.447750 1408.441299,252.551334 1312.945847,253.022033 1312.089882,218.670717 1282.623751,218.485143 1187.916477,372.145451 1228.387916,396.821097 1276.832620,320.711745 1322.238331,348.542346 1271.777617,428.290769 1405.923236,510.976684 1346.186425,601.314875 1168.116873,490.057403 1218.622630,409.208150 1178.986994,384.372991 1089.874811,529.546662 1225.060887,614.515783 1195.034469,661.662749 1142.392040,628.547478 1163.330850,594.548966 1131.458603,574.415175 1113.120675,604.012390 1089.531594,642.089751 1175.284907,692.837093 1047.278529,896.364201 1037.262233,911.005666 981.701705,992.213559"/>
    <poly id="357834361" type="building" color="255,230,230" fill="1" layer="-1.00" shape="960.760193,1040.072541 969.730172,1025.566537 998.425321,1043.438416 989.138977,1058.019487 960.760193,1040.072541"/>
    <poly id="358977679" type="building" color="255,230,230" fill="1" layer="-1.00" shape="1214.445388,1068.432839 1224.033947,1052.854391 1207.123608,1042.173207 1196.155783,1035.332922 1186.216030,1050.675008 1214.445388,1068.432839"/>
    <poly id="358980426" type="building" color="255,230,230" fill="1" layer="-1.00" shape="1136.441640,1017.461962 1158.719584,1031.567600 1157.837042,1032.816009 1164.169027,1036.826870 1174.143459,1020.940430 1145.530162,1003.212868 1136.441640,1017.461962"/>
    <poly id="358980427" type="building" color="255,230,230" fill="1" layer="-1.00" shape="1164.169027,1036.826870 1154.544734,1052.205047 1126.100389,1034.067781 1135.782768,1018.923461 1157.837042,1032.816009 1164.169027,1036.826870"/>
    <poly id="360940195" type="residential" color="235,235,227" fill="1" layer="-3.00" shape="934.178505,1353.555088 947.726889,1341.488724 922.817542,1310.767460 964.600074,1274.322421 977.296805,1266.094519 1023.468417,1191.808797 992.097065,1172.324616 951.926664,1233.857636 940.134412,1247.083723 900.876367,1202.236232 858.245720,1238.530037 896.525653,1282.624257 905.621144,1275.399263 929.367218,1303.298574 907.731433,1322.476264 934.178505,1353.555088"/>
    <poly id="360947360" type="building" color="255,230,230" fill="1" layer="-1.00" shape="967.298411,1157.686895 942.606313,1141.994304 928.026695,1164.799700 924.210513,1170.758013 940.656908,1181.212140 952.169407,1188.523389 968.470541,1163.031857 967.298411,1157.686895"/>
    <poly id="363046815" type="building" color="255,230,230" fill="1" layer="-1.00" shape="1114.194980,1200.529114 1115.063123,1202.726091 1125.581881,1209.317875 1120.751365,1216.979049 1128.832867,1222.049575 1125.358501,1227.566094 1112.297995,1219.374353 1108.530033,1217.019261 1108.217823,1217.494524 1099.209217,1211.849276 1098.439635,1213.076429 1087.397521,1206.157909 1088.182322,1204.908655 1094.300453,1195.202241 1095.376993,1195.878297 1105.784666,1179.373022 1107.483753,1176.675562 1123.048865,1186.433588 1119.155539,1192.602294 1120.000330,1193.131888 1117.966104,1196.348869 1117.158701,1195.841824 1114.194980,1200.529114"/>
    <poly id="363046816" type="building" color="255,230,230" fill="1" layer="-1.00" shape="1107.483753,1176.675562 1117.274393,1161.143126 1144.958197,1178.495848 1135.167512,1194.028239 1123.048865,1186.433588 1107.483753,1176.675562"/>
    <poly id="363046817" type="building" color="255,230,230" fill="1" layer="-1.00" shape="1117.274393,1161.143126 1144.958197,1178.495848 1149.855030,1181.560820 1177.209765,1198.699712 1189.629201,1178.999659 1193.819894,1172.344499 1194.513302,1171.238968 1205.096533,1154.457502 1206.186072,1152.732942 1195.936433,1146.310032 1170.839331,1130.579661 1146.257917,1115.176126 1145.168389,1116.900697 1134.585172,1133.693384 1133.891866,1134.787808 1126.501157,1146.517287 1117.274393,1161.143126"/>
    <poly id="363046821" type="building" color="255,230,230" fill="1" layer="-1.00" shape="1177.209765,1198.699712 1167.299348,1214.164340 1148.842145,1242.971291 1125.526519,1228.134371 1130.744588,1219.976353 1126.700270,1217.418827 1149.855030,1181.560820 1177.209765,1198.699712"/>
    <poly id="397007178" type="building" color="255,230,230" fill="1" layer="-1.00" shape="1007.883742,1070.449523 1026.239429,1041.185575 1039.113988,1049.208809 1020.758260,1078.472718 1007.883742,1070.449523"/>
    <poly id="397007184" type="building" color="255,230,230" fill="1" layer="-1.00" shape="1007.883742,1070.449523 993.020530,1061.175715 1011.376170,1031.911720 1026.239429,1041.185575 1007.883742,1070.449523"/>
    <poly id="421508943" type="building" color="255,230,230" fill="1" layer="-1.00" shape="1071.355231,1131.586865 1085.485029,1140.454501 1094.366659,1146.020840 1104.431380,1130.079481 1076.874515,1112.783613 1066.809841,1128.725019 1071.355231,1131.586865"/>
    <poly id="44130355" type="building" color="255,230,230" fill="1" layer="-1.00" shape="1061.137681,1250.125556 1059.423510,1252.834015 1031.903308,1296.579872 1023.910774,1309.304662 1024.029160,1314.818497 1033.502041,1325.947069 1076.553497,1353.189008 1080.348390,1352.376658 1106.953689,1310.168144 1107.669895,1309.029454 1114.047268,1298.880689 1127.776662,1277.113260 1134.466124,1266.511483 1133.693949,1262.759282 1094.818829,1238.408994 1078.207054,1228.008587 1074.608429,1228.711467 1066.874930,1241.004940 1061.137681,1250.125556"/>
    <poly id="460394364" type="building" color="255,230,230" fill="1" layer="-1.00" shape="1158.644388,1085.261438 1156.466322,1086.832222 1155.117839,1088.954704 1156.702700,1089.957434 1159.384447,1085.734570 1158.644388,1085.261438"/>
    <poly id="460394364#1" type="shop" color="237,199,255" fill="1" layer="-1.00" shape="1158.644388,1085.261438 1156.466322,1086.832222 1155.117839,1088.954704 1156.702700,1089.957434 1159.384447,1085.734570 1158.644388,1085.261438"/>
    <poly id="494777672" type="building" color="255,230,230" fill="1" layer="-1.00" shape="977.101939,1261.613691 955.093300,1233.573359 953.940887,1232.096435 958.698002,1227.735528 961.205175,1223.688923 961.721093,1224.004519 966.583345,1216.121195 966.074943,1215.805663 970.738875,1208.265206 971.239857,1208.569562 981.505602,1214.881067 989.834761,1220.009078 999.255576,1225.802154 997.205546,1229.119073 977.101939,1261.613691"/>
    <poly id="688082629" type="building" color="255,230,230" fill="1" layer="-1.00" shape="916.853425,1190.968449 934.963856,1211.673217 940.710977,1206.676067 943.424654,1202.208857 949.092044,1193.332054 952.169407,1188.523389 924.210513,1170.758013 913.668160,1187.251345 916.853425,1190.968449"/>
    <poly id="94026095" type="building" color="255,230,230" fill="1" layer="-1.00" shape="970.738875,1208.265206 991.780081,1174.244738 994.456815,1175.890247 1001.014028,1179.925079 1017.650042,1190.158749 1020.296889,1191.781787 1015.183127,1200.063050 999.255576,1225.802154 989.834761,1220.009078 981.505602,1214.881067 971.239857,1208.569562 970.738875,1208.265206"/>
    <poi id="1769028145" type="amenity" color="237,199,199" layer="4.00" x="1159.47" y="1049.79"/>
    <poi id="1769028156" type="amenity" color="237,199,199" layer="4.00" x="1153.27" y="1059.10"/>
    <poi id="1769028172" type="amenity" color="237,199,199" layer="4.00" x="1145.05" y="1072.44"/>
    <poi id="1769028208" type="amenity" color="237,199,199" layer="4.00" x="1038.74" y="1090.11"/>
    <poi id="1769028212" type="amenity" color="237,199,199" layer="4.00" x="1116.68" y="1118.08"/>
    <poi id="1769028217" type="amenity" color="237,199,199" layer="4.00" x="1004.51" y="1145.04"/>
    <poi id="1769028222" type="amenity" color="237,199,199" layer="4.00" x="1090.08" y="1160.24"/>
    <poi id="1769028223" type="amenity" color="237,199,199" layer="4.00" x="969.38" y="1165.35"/>
    <poi id="1769028228" type="amenity" color="237,199,199" layer="4.00" x="1079.38" y="1177.21"/>
    <poi id="1769028335" type="amenity" color="237,199,199" layer="4.00" x="1180.70" y="1199.80"/>
    <poi id="1769028374" type="amenity" color="237,199,199" layer="4.00" x="1042.44" y="1199.96"/>
    <poi id="1769028486" type="amenity" color="237,199,199" layer="4.00" x="1104.67" y="1219.74"/>
    <poi id="1953045564" type="amenity" color="237,199,199" layer="4.00" x="1017.90" y="1169.70"/>
    <poi id="1953049083" type="amenity" color="237,199,199" layer="4.00" x="1002.06" y="1148.46"/>
    <poi id="2169065714" type="amenity" color="237,199,199" layer="4.00" x="1018.33" y="1039.16"/>
    <poi id="2169065767" type="shop" color="237,199,255" layer="4.00" x="999.37" y="1029.34"/>
    <poi id="2169291697" type="amenity" color="237,199,199" layer="4.00" x="1088.24" y="925.31"/>
    <poi id="2397493401" type="amenity" color="237,199,199" layer="4.00" x="969.55" y="1033.91"/>
    <poi id="2397493584" type="amenity" color="237,199,199" layer="4.00" x="1000.74" y="1100.34"/>
    <poi id="2397493591" type="amenity" color="237,199,199" layer="4.00" x="982.89" y="1131.81"/>
    <poi id="2404230979" type="shop" color="237,199,255" layer="4.00" x="1117.52" y="1165.09"/>
    <poi id="2404230996" type="shop" color="237,199,255" layer="4.00" x="1170.84" y="1202.95"/>
    <poi id="2404231029" type="shop" color="237,199,255" layer="4.00" x="1115.58" y="1170.51"/>
    <poi id="2404231046" type="shop" color="237,199,255" layer="4.00" x="1111.55" y="1175.64"/>
    <poi id="2404231076" type="shop" color="237,199,255" layer="4.00" x="1161.18" y="1219.09"/>
    <poi id="2404231084" type="shop" color="237,199,255" layer="4.00" x="1104.31" y="1187.80"/>
    <poi id="2404231092" type="amenity" color="237,199,199" layer="4.00" x="1094.62" y="1203.95"/>
    <poi id="2404231101" type="shop" color="237,199,255" layer="4.00" x="1152.04" y="1231.07"/>
    <poi id="2404231146" type="amenity" color="237,199,199" layer="4.00" x="1108.15" y="1214.53"/>
    <poi id="2404244852" type="shop" color="237,199,255" layer="4.00" x="1163.99" y="1094.44"/>
    <poi id="2404247450" type="amenity" color="237,199,199" layer="4.00" x="1045.27" y="1099.10"/>
    <poi id="2404247453" type="shop" color="237,199,255" layer="4.00" x="1035.09" y="1115.85"/>
    <poi id="2404247454" type="shop" color="237,199,255" layer="4.00" x="1081.71" y="1155.63"/>
    <poi id="2404247455" type="shop" color="237,199,255" layer="4.00" x="1077.51" y="1160.34"/>
    <poi id="2404247456" type="amenity" color="237,199,199" layer="4.00" x="1074.83" y="1165.25"/>
    <poi id="2404247458" type="shop" color="237,199,255" layer="4.00" x="1067.70" y="1177.00"/>
    <poi id="2404247459" type="shop" color="237,199,255" layer="4.00" x="1064.83" y="1182.82"/>
    <poi id="2404247468" type="shop" color="237,199,255" layer="4.00" x="1008.84" y="1154.54"/>
    <poi id="2404247470" type="shop" color="237,199,255" layer="4.00" x="1019.80" y="1161.33"/>
    <poi id="2404247474" type="amenity" color="237,199,199" layer="4.00" x="1113.53" y="1101.98"/>
    <poi id="2404249343" type="amenity" color="237,199,199" layer="4.00" x="1163.15" y="1031.69"/>
    <poi id="2404249344" type="shop" color="237,199,255" layer="4.00" x="1156.14" y="1043.14"/>
    <poi id="2404249349" type="amenity" color="237,199,199" layer="4.00" x="1143.98" y="1063.62"/>
    <poi id="2404249352" type="amenity" color="237,199,199" layer="4.00" x="1112.64" y="1063.47"/>
    <poi id="2404249353" type="amenity" color="237,199,199" layer="4.00" x="1119.87" y="1068.27"/>
    <poi id="2404249355" type="amenity" color="237,199,199" layer="4.00" x="1127.71" y="1072.64"/>
    <poi id="2531232461" type="shop" color="237,199,255" layer="4.00" x="976.29" y="1128.73"/>
    <poi id="2548159418" type="amenity" color="237,199,199" layer="4.00" x="1023.99" y="1195.21"/>
    <poi id="2561809365" type="amenity" color="237,199,199" layer="4.00" x="1145.65" y="1126.19"/>
    <poi id="2713470174" type="amenity" color="237,199,199" layer="4.00" x="1127.66" y="1154.71"/>
    <poi id="3616111925" type="shop" color="237,199,255" layer="4.00" x="1005.03" y="1093.48"/>
    <poi id="3616315096" type="shop" color="237,199,255" layer="4.00" x="1054.52" y="1176.44"/>
    <poi id="3757713839" type="amenity" color="237,199,199" layer="4.00" x="1140.12" y="1081.51"/>
    <poi id="3757713840" type="amenity" color="237,199,199" layer="4.00" x="1124.77" y="1077.54"/>
    <poi id="3757713841" type="amenity" color="237,199,199" layer="4.00" x="1155.03" y="1093.34"/>
    <poi id="3757713843" type="amenity" color="237,199,199" layer="4.00" x="1148.56" y="1111.96"/>
    <poi id="3757713844" type="amenity" color="237,199,199" layer="4.00" x="1143.20" y="1117.25"/>
    <poi id="3757713845" type="amenity" color="237,199,199" layer="4.00" x="1181.20" y="1117.28"/>
    <poi id="3757713846" type="amenity" color="237,199,199" layer="4.00" x="1178.76" y="1116.22"/>
    <poi id="3757713847" type="amenity" color="237,199,199" layer="4.00" x="1176.76" y="1115.24"/>
    <poi id="4037701389" type="shop" color="237,199,255" layer="4.00" x="1071.84" y="1171.31"/>
    <poi id="4281332497" type="amenity" color="237,199,199" layer="4.00" x="1056.83" y="1089.62"/>
    <poi id="4345197579" type="amenity" color="237,199,199" layer="4.00" x="1143.48" y="1075.92"/>
    <poi id="4345208111" type="amenity" color="237,199,199" layer="4.00" x="1142.71" y="1077.02"/>
    <poi id="4465621911" type="amenity" color="237,199,199" layer="4.00" x="1180.98" y="1188.66"/>
    <poi id="4465621913" type="shop" color="237,199,255" layer="4.00" x="1159.14" y="1209.10"/>
    <poi id="4469611860" type="parking" color="184,184,179" layer="4.00" x="1170.84" y="1130.58"/>
    <poi id="4507303601" type="amenity" color="237,199,199" layer="4.00" x="1146.99" y="1059.01"/>
    <poi id="4507376191" type="amenity" color="237,199,199" layer="4.00" x="1145.22" y="1061.26"/>
    <poi id="4639109902" type="amenity" color="237,199,199" layer="4.00" x="996.07" y="1107.75"/>
    <poi id="4686187983" type="man_made" color="255,230,230" layer="4.00" x="1145.79" y="1115.27"/>
    <poi id="4686187984" type="man_made" color="255,230,230" layer="4.00" x="1146.75" y="1115.19"/>
    <poi id="4686187987" type="man_made" color="255,230,230" layer="4.00" x="1173.13" y="1106.48"/>
    <poi id="4686188791" type="man_made" color="255,230,230" layer="4.00" x="1178.35" y="1198.26"/>
    <poi id="4735308789" type="shop" color="237,199,255" layer="4.00" x="1012.97" y="1036.12"/>
    <poi id="4735308790" type="tourism" color="207,245,201" layer="3.00" x="1157.80" y="1117.34"/>
    <poi id="4735308792" type="amenity" color="237,199,199" layer="4.00" x="1127.29" y="1108.19"/>
    <poi id="4735308794" type="amenity" color="237,199,199" layer="4.00" x="1067.55" y="1063.34"/>
    <poi id="4735308796" type="amenity" color="237,199,199" layer="4.00" x="1065.55" y="1061.87"/>
    <poi id="4735308798" type="amenity" color="237,199,199" layer="4.00" x="1054.06" y="1069.86"/>
    <poi id="4735308800" type="amenity" color="237,199,199" layer="4.00" x="1055.25" y="1066.57"/>
    <poi id="4888662535" type="amenity" color="237,199,199" layer="4.00" x="1161.12" y="1080.15"/>
    <poi id="4917798993" type="amenity" color="237,199,199" layer="4.00" x="983.81" y="1268.42"/>
    <poi id="5794108453" type="amenity" color="237,199,199" layer="4.00" x="1139.65" y="1135.69"/>
    <poi id="5916804202" type="tourism" color="207,245,201" layer="3.00" x="964.81" y="1228.85"/>
    <poi id="6334106186" type="amenity" color="237,199,199" layer="4.00" x="1037.30" y="1050.68"/>
    <poi id="6645051115" type="tourism" color="207,245,201" layer="3.00" x="1034.52" y="1054.28"/>
    <poi id="6734133285" type="amenity" color="237,199,199" layer="4.00" x="1127.61" y="1088.04"/>
    <poi id="6734133286" type="amenity" color="237,199,199" layer="4.00" x="1114.22" y="1079.79"/>
    <poi id="6781330674" type="shop" color="237,199,255" layer="4.00" x="959.49" y="1162.56"/>
    <poi id="7549054065" type="amenity" color="237,199,199" layer="4.00" x="1142.26" y="1150.60"/>
    <poi id="7549054066" type="amenity" color="237,199,199" layer="4.00" x="1148.25" y="1141.09"/>
    <poi id="7549054067" type="amenity" color="237,199,199" layer="4.00" x="1136.27" y="1160.10"/>
    <poi id="7604516011" type="amenity" color="237,199,199" layer="4.00" x="1047.87" y="1085.99"/>
    <poi id="8758984590" type="man_made" color="255,230,230" layer="4.00" x="1022.61" y="1194.82"/>
    <poi id="8758984591" type="man_made" color="255,230,230" layer="4.00" x="1046.27" y="1159.69"/>
    <poi id="8758984592" type="man_made" color="255,230,230" layer="4.00" x="1050.38" y="1152.88"/>
    <poi id="8758984593" type="man_made" color="255,230,230" layer="4.00" x="1067.06" y="1117.95"/>
    <poi id="8758984594" type="man_made" color="255,230,230" layer="4.00" x="1065.99" y="1119.65"/>
    <poi id="8758984595" type="man_made" color="255,230,230" layer="4.00" x="1077.95" y="1108.71"/>
    <poi id="8758984596" type="man_made" color="255,230,230" layer="4.00" x="1082.66" y="1101.57"/>
    <poi id="8758984597" type="man_made" color="255,230,230" layer="4.00" x="1080.39" y="1105.07"/>
    <poi id="8758984598" type="man_made" color="255,230,230" layer="4.00" x="1090.84" y="1088.47"/>
    <poi id="8758984599" type="man_made" color="255,230,230" layer="4.00" x="1093.12" y="1084.76"/>
    <poi id="8758984600" type="man_made" color="255,230,230" layer="4.00" x="1086.00" y="1076.76"/>
    <poi id="8758984601" type="man_made" color="255,230,230" layer="4.00" x="1100.49" y="1063.03"/>
    <poi id="8758984602" type="man_made" color="255,230,230" layer="4.00" x="1096.24" y="1082.86"/>
    <poi id="8784061454" type="man_made" color="255,230,230" layer="4.00" x="1081.72" y="1228.58"/>
    <poi id="8784080308" type="man_made" color="255,230,230" layer="4.00" x="1155.25" y="1123.70"/>
    <poi id="8784147974" type="man_made" color="255,230,230" layer="4.00" x="1090.91" y="1200.11"/>
    <poi id="8784147975" type="man_made" color="255,230,230" layer="4.00" x="1093.44" y="1196.05"/>
    <poi id="8784147976" type="man_made" color="255,230,230" layer="4.00" x="1098.00" y="1213.21"/>
    <poi id="8784147977" type="man_made" color="255,230,230" layer="4.00" x="1093.56" y="1210.57"/>
    <poi id="8784147978" type="man_made" color="255,230,230" layer="4.00" x="1091.32" y="1209.21"/>
    <poi id="8784147979" type="man_made" color="255,230,230" layer="4.00" x="1102.46" y="1181.31"/>
    <poi id="8784147980" type="man_made" color="255,230,230" layer="4.00" x="1101.75" y="1182.43"/>
    <poi id="8784147981" type="man_made" color="255,230,230" layer="4.00" x="1098.11" y="1188.42"/>
    <poi id="8784147982" type="man_made" color="255,230,230" layer="4.00" x="1076.59" y="1173.71"/>
    <poi id="8784147983" type="man_made" color="255,230,230" layer="4.00" x="1121.22" y="1153.89"/>
    <poi id="8784147984" type="man_made" color="255,230,230" layer="4.00" x="1126.98" y="1143.79"/>
    <poi id="8784147985" type="man_made" color="255,230,230" layer="4.00" x="1104.92" y="1130.49"/>
    <poi id="8784147986" type="man_made" color="255,230,230" layer="4.00" x="1106.33" y="1128.15"/>
    <poi id="8784147987" type="man_made" color="255,230,230" layer="4.00" x="1108.41" y="1124.87"/>
    <poi id="8784147988" type="man_made" color="255,230,230" layer="4.00" x="1109.82" y="1122.62"/>
    <poi id="8784164140" type="man_made" color="255,230,230" layer="4.00" x="1087.99" y="1084.21"/>
    <poi id="8784164141" type="man_made" color="255,230,230" layer="4.00" x="1120.55" y="1040.97"/>
    <poi id="8784164142" type="man_made" color="255,230,230" layer="4.00" x="1119.14" y="1043.42"/>
    <poi id="8784164145" type="man_made" color="255,230,230" layer="4.00" x="1128.87" y="1029.28"/>
    <poi id="8843884407" type="shop" color="237,199,255" layer="4.00" x="993.10" y="1178.52"/>
</additional>
