<?xml version="1.0" encoding="UTF-8"?>

<!-- generated on 2022-09-25 22:04:46 by Eclipse SUMO netedit Version 1.14.1
<configuration xmlns:xsi="http://www.w3.org/2001/XMLSchema-instance" xsi:noNamespaceSchemaLocation="http://sumo.dlr.de/xsd/netconvertConfiguration.xsd">

    <input>
        <sumo-net-file value="melbcbd.net.xml"/>
    </input>

    <output>
        <output-file value="melbcbd.net.xml"/>
    </output>

    <processing>
        <geometry.min-radius.fix.railways value="false"/>
        <geometry.max-grade.fix value="false"/>
        <offset.disable-normalization value="true"/>
        <lefthand value="false"/>
    </processing>

    <junctions>
        <no-turnarounds value="true"/>
        <junctions.corner-detail value="5"/>
        <junctions.limit-turn-speed value="5.5"/>
        <rectangular-lane-cut value="false"/>
    </junctions>

    <pedestrian>
        <walkingareas value="false"/>
    </pedestrian>

</configuration>
-->

<net version="1.9" junctionCornerDetail="5" limitTurnSpeed="5.50" xmlns:xsi="http://www.w3.org/2001/XMLSchema-instance" xsi:noNamespaceSchemaLocation="http://sumo.dlr.de/xsd/net_file.xsd">

    <location netOffset="0.00,0.00" convBoundary="40.00,10.00,120.00,90.00" origBoundary="-10000000000.00,-10000000000.00,10000000000.00,10000000000.00" projParameter="!"/>

    <edge id=":J1_0" function="internal">
        <lane id=":J1_0_0" index="0" speed="6.51" length="9.03" shape="75.20,60.40 74.85,57.95 73.80,56.20 72.05,55.15 69.60,54.80"/>
    </edge>
    <edge id=":J1_1" function="internal">
        <lane id=":J1_1_0" index="0" speed="13.89" length="20.80" shape="75.20,60.40 75.20,39.60"/>
        <lane id=":J1_1_1" index="1" speed="13.89" length="20.80" shape="78.40,60.40 78.40,39.60"/>
    </edge>
    <edge id=":J1_3" function="internal">
        <lane id=":J1_3_0" index="0" speed="9.26" length="5.01" shape="78.40,60.40 79.11,55.44"/>
    </edge>
    <edge id=":J1_16" function="internal">
        <lane id=":J1_16_0" index="0" speed="9.26" length="14.34" shape="79.11,55.44 79.15,55.15 81.40,51.40 85.15,49.15 90.40,48.40"/>
    </edge>
    <edge id=":J1_4" function="internal">
        <lane id=":J1_4_0" index="0" speed="6.51" length="9.03" shape="90.40,54.80 87.95,55.15 86.20,56.20 85.15,57.95 84.80,60.40"/>
    </edge>
    <edge id=":J1_5" function="internal">
        <lane id=":J1_5_0" index="0" speed="13.89" length="20.80" shape="90.40,54.80 69.60,54.80"/>
        <lane id=":J1_5_1" index="1" speed="13.89" length="20.80" shape="90.40,51.60 69.60,51.60"/>
    </edge>
    <edge id=":J1_7" function="internal">
        <lane id=":J1_7_0" index="0" speed="9.26" length="5.01" shape="90.40,51.60 85.44,50.89"/>
    </edge>
    <edge id=":J1_17" function="internal">
        <lane id=":J1_17_0" index="0" speed="9.26" length="14.34" shape="85.44,50.89 85.15,50.85 81.40,48.60 79.15,44.85 78.40,39.60"/>
    </edge>
    <edge id=":J1_8" function="internal">
        <lane id=":J1_8_0" index="0" speed="6.51" length="9.03" shape="84.80,39.60 85.15,42.05 86.20,43.80 87.95,44.85 90.40,45.20"/>
    </edge>
    <edge id=":J1_9" function="internal">
        <lane id=":J1_9_0" index="0" speed="13.89" length="20.80" shape="84.80,39.60 84.80,60.40"/>
        <lane id=":J1_9_1" index="1" speed="13.89" length="20.80" shape="81.60,39.60 81.60,60.40"/>
    </edge>
    <edge id=":J1_11" function="internal">
        <lane id=":J1_11_0" index="0" speed="9.26" length="5.01" shape="81.60,39.60 80.89,44.56"/>
    </edge>
    <edge id=":J1_18" function="internal">
        <lane id=":J1_18_0" index="0" speed="9.26" length="14.34" shape="80.89,44.56 80.85,44.85 78.60,48.60 74.85,50.85 69.60,51.60"/>
    </edge>
    <edge id=":J1_12" function="internal">
        <lane id=":J1_12_0" index="0" speed="6.51" length="9.03" shape="69.60,45.20 72.05,44.85 73.80,43.80 74.85,42.05 75.20,39.60"/>
    </edge>
    <edge id=":J1_13" function="internal">
        <lane id=":J1_13_0" index="0" speed="13.89" length="20.80" shape="69.60,45.20 90.40,45.20"/>
        <lane id=":J1_13_1" index="1" speed="13.89" length="20.80" shape="69.60,48.40 90.40,48.40"/>
    </edge>
    <edge id=":J1_15" function="internal">
        <lane id=":J1_15_0" index="0" speed="9.26" length="5.01" shape="69.60,48.40 74.56,49.11"/>
    </edge>
    <edge id=":J1_19" function="internal">
        <lane id=":J1_19_0" index="0" speed="9.26" length="14.34" shape="74.56,49.11 74.85,49.15 78.60,51.40 80.85,55.15 81.60,60.40"/>
    </edge>

    <edge id="-E1" from="J2" to="J1" priority="-1" length="1000.00">
        <lane id="-E1_0" index="0" speed="13.89" length="1000.00" shape="84.80,10.00 84.80,39.60"/>
        <lane id="-E1_1" index="1" speed="13.89" length="1000.00" shape="81.60,10.00 81.60,39.60"/>
    </edge>
    <edge id="-E2" from="J1" to="J3" priority="-1" length="1000.00">
        <lane id="-E2_0" index="0" speed="13.89" length="1000.00" shape="69.60,54.80 40.00,54.80"/>
        <lane id="-E2_1" index="1" speed="13.89" length="1000.00" shape="69.60,51.60 40.00,51.60"/>
    </edge>
    <edge id="-E3" from="J4" to="J1" priority="-1" length="1000.00">
        <lane id="-E3_0" index="0" speed="13.89" length="1000.00" shape="120.00,54.80 90.40,54.80"/>
        <lane id="-E3_1" index="1" speed="13.89" length="1000.00" shape="120.00,51.60 90.40,51.60"/>
    </edge>
    <edge id="-E4" from="J5" to="J1" priority="-1" length="1000.00">
        <lane id="-E4_0" index="0" speed="13.89" length="1000.00" shape="75.20,90.00 75.20,60.40"/>
        <lane id="-E4_1" index="1" speed="13.89" length="1000.00" shape="78.40,90.00 78.40,60.40"/>
    </edge>
    <edge id="E1" from="J1" to="J2" priority="-1" length="1000.00">
        <lane id="E1_0" index="0" speed="13.89" length="1000.00" shape="75.20,39.60 75.20,10.00"/>
        <lane id="E1_1" index="1" speed="13.89" length="1000.00" shape="78.40,39.60 78.40,10.00"/>
    </edge>
    <edge id="E2" from="J3" to="J1" priority="-1" length="1000.00">
        <lane id="E2_0" index="0" speed="13.89" length="1000.00" shape="40.00,45.20 69.60,45.20"/>
        <lane id="E2_1" index="1" speed="13.89" length="1000.00" shape="40.00,48.40 69.60,48.40"/>
    </edge>
    <edge id="E3" from="J1" to="J4" priority="-1" length="1000.00">
        <lane id="E3_0" index="0" speed="13.89" length="1000.00" shape="90.40,45.20 120.00,45.20"/>
        <lane id="E3_1" index="1" speed="13.89" length="1000.00" shape="90.40,48.40 120.00,48.40"/>
    </edge>
    <edge id="E4" from="J1" to="J5" priority="-1" length="1000.00">
        <lane id="E4_0" index="0" speed="13.89" length="1000.00" shape="84.80,60.40 84.80,90.00"/>
        <lane id="E4_1" index="1" speed="13.89" length="1000.00" shape="81.60,60.40 81.60,90.00"/>
    </edge>

    <tlLogic id="J1" type="static" programID="0" offset="0">
        <phase duration="42" state="GGGgrrrrGGGgrrrr"/>
        <phase duration="3"  state="yyyyrrrryyyyrrrr"/>
        <phase duration="42" state="rrrrGGGgrrrrGGGg"/>
        <phase duration="3"  state="rrrryyyyrrrryyyy"/>
    </tlLogic>

    <junction id="J1" type="traffic_light" x="80.00" y="50.00" incLanes="-E4_0 -E4_1 -E3_0 -E3_1 -E1_0 -E1_1 E2_0 E2_1" intLanes=":J1_0_0 :J1_1_0 :J1_1_1 :J1_16_0 :J1_4_0 :J1_5_0 :J1_5_1 :J1_17_0 :J1_8_0 :J1_9_0 :J1_9_1 :J1_18_0 :J1_12_0 :J1_13_0 :J1_13_1 :J1_19_0" shape="73.60,60.40 86.40,60.40 86.84,58.18 87.40,57.40 88.18,56.84 89.18,56.51 90.40,56.40 90.40,43.60 88.18,43.16 87.40,42.60 86.84,41.82 86.51,40.82 86.40,39.60 73.60,39.60 73.16,41.82 72.60,42.60 71.82,43.16 70.82,43.49 69.60,43.60 69.60,56.40 71.82,56.84 72.60,57.40 73.16,58.18 73.49,59.18">
        <request index="0"  response="0000000000000000" foes="0000000001100000" cont="0"/>
        <request index="1"  response="1000000010000000" foes="1111100011100000" cont="0"/>
        <request index="2"  response="1000000010000000" foes="1111100011100000" cont="0"/>
        <request index="3"  response="1000011010000000" foes="1110011011100000" cont="1"/>
        <request index="4"  response="0000011000000000" foes="0000011000000000" cont="0"/>
        <request index="5"  response="0000111000001111" foes="1000111000001111" cont="0"/>
        <request index="6"  response="0000111000001111" foes="1000111000001111" cont="0"/>
        <request index="7"  response="0110111000001110" foes="0110111000001110" cont="1"/>
        <request index="8"  response="0000000000000000" foes="0110000000000000" cont="0"/>
        <request index="9"  response="1000000010000000" foes="1110000011111000" cont="0"/>
        <request index="10" response="1000000010000000" foes="1110000011111000" cont="0"/>
        <request index="11" response="1000000010000110" foes="1110000011100110" cont="1"/>
        <request index="12" response="0000000000000110" foes="0000000000000110" cont="0"/>
        <request index="13" response="0000111100001110" foes="0000111110001110" cont="0"/>
        <request index="14" response="0000111100001110" foes="0000111110001110" cont="0"/>
        <request index="15" response="0000111001101110" foes="0000111001101110" cont="1"/>
    </junction>
    <junction id="J2" type="dead_end" x="80.00" y="10.00" incLanes="E1_0 E1_1" intLanes="" shape="80.00,10.00 73.60,10.00 80.00,10.00"/>
    <junction id="J3" type="dead_end" x="40.00" y="50.00" incLanes="-E2_0 -E2_1" intLanes="" shape="40.00,50.00 40.00,56.40 40.00,50.00"/>
    <junction id="J4" type="dead_end" x="120.00" y="50.00" incLanes="E3_0 E3_1" intLanes="" shape="120.00,50.00 120.00,43.60 120.00,50.00"/>
    <junction id="J5" type="dead_end" x="80.00" y="90.00" incLanes="E4_0 E4_1" intLanes="" shape="80.00,90.00 86.40,90.00 80.00,90.00"/>

    <junction id=":J1_16_0" type="internal" x="79.11" y="55.44" incLanes=":J1_3_0 -E1_0 -E1_1" intLanes=":J1_5_0 :J1_5_1 :J1_7_0 :J1_8_0 :J1_9_0 :J1_9_1 :J1_13_0 :J1_13_1 :J1_15_0"/>
    <junction id=":J1_17_0" type="internal" x="85.44" y="50.89" incLanes=":J1_7_0 E2_0 E2_1" intLanes=":J1_1_0 :J1_1_1 :J1_3_0 :J1_9_0 :J1_9_1 :J1_11_0 :J1_12_0 :J1_13_0 :J1_13_1"/>
    <junction id=":J1_18_0" type="internal" x="80.89" y="44.56" incLanes=":J1_11_0 -E4_0 -E4_1" intLanes=":J1_0_0 :J1_1_0 :J1_1_1 :J1_5_0 :J1_5_1 :J1_7_0 :J1_13_0 :J1_13_1 :J1_15_0"/>
    <junction id=":J1_19_0" type="internal" x="74.56" y="49.11" incLanes=":J1_15_0 -E3_0 -E3_1" intLanes=":J1_1_0 :J1_1_1 :J1_3_0 :J1_4_0 :J1_5_0 :J1_5_1 :J1_9_0 :J1_9_1 :J1_11_0"/>

    <connection from="-E1" to="E3" fromLane="0" toLane="0" via=":J1_8_0" tl="J1" linkIndex="8" dir="r" state="O"/>
    <connection from="-E1" to="E4" fromLane="0" toLane="0" via=":J1_9_0" tl="J1" linkIndex="9" dir="s" state="O"/>
    <connection from="-E1" to="E4" fromLane="1" toLane="1" via=":J1_9_1" tl="J1" linkIndex="10" dir="s" state="O"/>
    <connection from="-E1" to="-E2" fromLane="1" toLane="1" via=":J1_11_0" tl="J1" linkIndex="11" dir="l" state="o"/>
    <connection from="-E3" to="E4" fromLane="0" toLane="0" via=":J1_4_0" tl="J1" linkIndex="4" dir="r" state="o"/>
    <connection from="-E3" to="-E2" fromLane="0" toLane="0" via=":J1_5_0" tl="J1" linkIndex="5" dir="s" state="o"/>
    <connection from="-E3" to="-E2" fromLane="1" toLane="1" via=":J1_5_1" tl="J1" linkIndex="6" dir="s" state="o"/>
    <connection from="-E3" to="E1" fromLane="1" toLane="1" via=":J1_7_0" tl="J1" linkIndex="7" dir="l" state="o"/>
    <connection from="-E4" to="-E2" fromLane="0" toLane="0" via=":J1_0_0" tl="J1" linkIndex="0" dir="r" state="O"/>
    <connection from="-E4" to="E1" fromLane="0" toLane="0" via=":J1_1_0" tl="J1" linkIndex="1" dir="s" state="O"/>
    <connection from="-E4" to="E1" fromLane="1" toLane="1" via=":J1_1_1" tl="J1" linkIndex="2" dir="s" state="O"/>
    <connection from="-E4" to="E3" fromLane="1" toLane="1" via=":J1_3_0" tl="J1" linkIndex="3" dir="l" state="o"/>
    <connection from="E2" to="E1" fromLane="0" toLane="0" via=":J1_12_0" tl="J1" linkIndex="12" dir="r" state="o"/>
    <connection from="E2" to="E3" fromLane="0" toLane="0" via=":J1_13_0" tl="J1" linkIndex="13" dir="s" state="o"/>
    <connection from="E2" to="E3" fromLane="1" toLane="1" via=":J1_13_1" tl="J1" linkIndex="14" dir="s" state="o"/>
    <connection from="E2" to="E4" fromLane="1" toLane="1" via=":J1_15_0" tl="J1" linkIndex="15" dir="l" state="o"/>

    <connection from=":J1_0" to="-E2" fromLane="0" toLane="0" dir="r" state="M"/>
    <connection from=":J1_1" to="E1" fromLane="0" toLane="0" dir="s" state="M"/>
    <connection from=":J1_1" to="E1" fromLane="1" toLane="1" dir="s" state="M"/>
    <connection from=":J1_3" to="E3" fromLane="0" toLane="1" via=":J1_16_0" dir="l" state="m"/>
    <connection from=":J1_16" to="E3" fromLane="0" toLane="1" dir="l" state="M"/>
    <connection from=":J1_4" to="E4" fromLane="0" toLane="0" dir="r" state="M"/>
    <connection from=":J1_5" to="-E2" fromLane="0" toLane="0" dir="s" state="M"/>
    <connection from=":J1_5" to="-E2" fromLane="1" toLane="1" dir="s" state="M"/>
    <connection from=":J1_7" to="E1" fromLane="0" toLane="1" via=":J1_17_0" dir="l" state="m"/>
    <connection from=":J1_17" to="E1" fromLane="0" toLane="1" dir="l" state="M"/>
    <connection from=":J1_8" to="E3" fromLane="0" toLane="0" dir="r" state="M"/>
    <connection from=":J1_9" to="E4" fromLane="0" toLane="0" dir="s" state="M"/>
    <connection from=":J1_9" to="E4" fromLane="1" toLane="1" dir="s" state="M"/>
    <connection from=":J1_11" to="-E2" fromLane="0" toLane="1" via=":J1_18_0" dir="l" state="m"/>
    <connection from=":J1_18" to="-E2" fromLane="0" toLane="1" dir="l" state="M"/>
    <connection from=":J1_12" to="E1" fromLane="0" toLane="0" dir="r" state="M"/>
    <connection from=":J1_13" to="E3" fromLane="0" toLane="0" dir="s" state="M"/>
    <connection from=":J1_13" to="E3" fromLane="1" toLane="1" dir="s" state="M"/>
    <connection from=":J1_15" to="E4" fromLane="0" toLane="1" via=":J1_19_0" dir="l" state="m"/>
    <connection from=":J1_19" to="E4" fromLane="0" toLane="1" dir="l" state="M"/>

</net>
