<?xml version="1.0" encoding="UTF-8"?>

<!-- generated on 2022-08-25 23:35:30 by Eclipse SUMO polyconvert Version 1.13.0
<configuration xmlns:xsi="http://www.w3.org/2001/XMLSchema-instance" xsi:noNamespaceSchemaLocation="http://sumo.dlr.de/xsd/polyconvertConfiguration.xsd">

    <input>
        <net-file value="melbcbd.net.xml"/>
        <osm-files value="map.osm"/>
    </input>

    <output>
        <output-file value="melbcbd.poly.xml"/>
    </output>

    <processing>
        <poi-layer-offset value="5"/>
    </processing>

</configuration>
-->

<additional xmlns:xsi="http://www.w3.org/2001/XMLSchema-instance" xsi:noNamespaceSchemaLocation="http://sumo.dlr.de/xsd/additional_file.xsd">
    <location netOffset="-322427.81,4190592.34" convBoundary="-5128.97,0.00,978.52,5054.35" origBoundary="144.924813,-37.845553,144.993057,-37.799329" projParameter="+proj=utm +zone=55 +ellps=WGS84 +datum=WGS84 +units=m +no_defs"/>

    <poly id="128950457" type="landuse" color="194,194,130" fill="1" layer="-3.00" shape="790.709894,789.406267 732.673488,797.083013 735.728509,816.721156 721.940956,819.577264 677.684352,825.563044 636.367943,831.567507 543.097473,844.878646 540.093636,824.519896 485.840513,832.698319 474.456857,834.717694 429.692740,841.357321 425.685501,829.980414 410.925788,832.182245 406.276698,833.014538 404.486711,818.032950 400.988829,791.613006 392.218729,728.787647 396.681043,728.040152 446.915039,721.263332 449.377340,735.282450 455.670393,734.152526 515.206935,725.499815 518.394971,721.782822 519.730825,730.881755 520.912678,738.956007 578.497371,730.582725 579.259760,734.018493 594.557053,731.372781 616.545385,728.737948 618.610421,737.097646 635.504371,734.308622 635.282785,726.610331 649.026617,724.552760 649.640021,729.184301 682.343985,723.649365 675.652886,712.192600 711.270108,706.698081 764.332437,698.159549 804.522242,693.329234 806.147784,706.164523 849.223612,701.007526 850.369974,710.746211 871.777109,707.698538 871.925261,727.007650 875.224630,759.040522 881.135573,794.504486 829.123276,804.143257 793.418493,809.192351 790.709894,789.406267"/>
    <poly id="27557257" type="school" color="237,199,199" fill="1" layer="-2.00" shape="297.390882,708.213033 303.241305,750.037576 312.292952,748.778554 319.791060,802.384312 389.024729,792.787110 375.675142,697.368054 372.027967,697.877779 297.390882,708.213033"/>
    <poly id="722664449" type="residential" color="235,235,227" fill="1" layer="-3.00" shape="-7.948196,882.755491 -2.613713,870.991864 149.126983,848.403072 250.978150,834.493341 370.824806,818.150688 388.913747,817.119808 402.411541,908.545361 422.730382,1045.024591 443.604923,1193.749825 442.025270,1195.958327 263.215591,1219.256538 45.274254,1250.764598 -7.948196,882.755491"/>
    <poly id="722664937" type="residential" color="235,235,227" fill="1" layer="-3.00" shape="410.925788,832.182245 462.089339,1186.254936 464.837068,1190.310799 468.096683,1192.268360 592.916985,1175.774075 628.958576,1171.521233 864.340568,1139.418328 823.357971,835.581473 788.235782,840.554272 783.942320,810.542682 793.418493,809.192351 790.709894,789.406267 732.673488,797.083013 735.728509,816.721156 721.940956,819.577264 677.684352,825.563044 636.367943,831.567507 543.097473,844.878646 540.093636,824.519896 429.692740,841.357321 425.685501,829.980414 410.925788,832.182245"/>
    <poly id="789199766" type="building" color="255,230,230" fill="1" layer="-1.00" shape="361.765675,856.489550 385.011119,854.781673 380.940623,825.929182 356.426108,829.330444 361.765675,856.489550"/>
    <poly id="789199881" type="building" color="255,230,230" fill="1" layer="-1.00" shape="409.251554,815.915349 447.069683,811.279829 448.334572,833.876999 431.076170,836.813221 429.753226,825.893858 411.117909,828.989078 409.251554,815.915349"/>
    <poly id="789199885" type="building" color="255,230,230" fill="1" layer="-1.00" shape="408.345917,793.403625 404.605237,772.118568 412.206806,770.328584 411.554372,761.388688 401.753675,761.454877 399.959448,753.611634 408.726735,749.615338 407.711283,744.852982 400.433464,744.696030 398.747654,731.826020 421.809684,727.582899 422.270725,732.333298 441.953103,728.849876 446.160889,754.607897 436.884711,756.073157 438.795307,771.179458 447.517082,769.702241 450.224444,787.057172 408.345917,793.403625"/>
    <poi id="344097631" type="amenity" color="237,199,199" layer="4.00" x="415.00" y="778.39"/>
    <poi id="538134815" type="shop" color="237,199,255" layer="4.00" x="414.36" y="818.37"/>
    <poi id="538134816" type="shop" color="237,199,255" layer="4.00" x="428.02" y="815.65"/>
</additional>
