<?xml version="1.0" encoding="UTF-8"?>

<!-- generated on 2022-07-11 03:36:57 by Eclipse SUMO duarouter Version 1.13.0
<configuration xmlns:xsi="http://www.w3.org/2001/XMLSchema-instance" xsi:noNamespaceSchemaLocation="http://sumo.dlr.de/xsd/duarouterConfiguration.xsd">

    <input>
        <net-file value="melbcbd.net.xml"/>
        <route-files value="trips.xml"/>
    </input>

    <output>
        <output-file value="routes.rou.xml"/>
        <alternatives-output value="routes.rou.alt.xml"/>
    </output>

    <time>
        <begin value="0"/>
        <end value="5"/>
    </time>

    <report>
        <no-warnings value="true"/>
        <ignore-errors value="true"/>
        <no-step-log value="true"/>
    </report>

</configuration>
-->

<routes xmlns:xsi="http://www.w3.org/2001/XMLSchema-instance" xsi:noNamespaceSchemaLocation="http://sumo.dlr.de/xsd/routes_file.xsd">
    <vehicle id="0" depart="0.00">
        <route edges="337541591#0 -337541591#1"/>
    </vehicle>
    <vehicle id="1" depart="0.50">
        <route edges="-4759022#2 -337541591#1"/>
    </vehicle>
    <vehicle id="2" depart="1.00">
        <route edges="337541591#0 117060728#1"/>
    </vehicle>
    <vehicle id="3" depart="1.50">
        <route edges="792170395#0 -337541591#1"/>
    </vehicle>
    <vehicle id="4" depart="2.00">
        <route edges="-4759022#2 -337541591#1"/>
    </vehicle>
    <vehicle id="5" depart="2.50">
        <route edges="-117060728#2 117060728#1"/>
    </vehicle>
    <vehicle id="6" depart="3.00">
        <route edges="-117060728#2 -337541591#1"/>
    </vehicle>
    <vehicle id="7" depart="3.50">
        <route edges="337541591#0 117060728#1"/>
    </vehicle>
    <vehicle id="8" depart="4.00">
        <route edges="-117060728#2 117060728#1"/>
    </vehicle>
    <vehicle id="9" depart="4.50">
        <route edges="792170395#0 -337541591#1"/>
    </vehicle>
</routes>
