<?xml version="1.0" encoding="UTF-8"?>

<!-- generated on 2022-09-17 07:26:33.919754 by randomTrips.py UNKNOWN
<configuration>
    <end value="120"/>
    <insertion-rate value="100.0"/>
    <net-file value="melbcbd.net.xml"/>
    <route-file value="routes.rou.xml"/>
    <output-trip-file value="trips.xml"/>
</configuration>
-->

<!-- generated on 2022-09-17 07:26:33 by Eclipse SUMO duarouter Version 1.14.1
<configuration xmlns:xsi="http://www.w3.org/2001/XMLSchema-instance" xsi:noNamespaceSchemaLocation="http://sumo.dlr.de/xsd/duarouterConfiguration.xsd">

    <input>
        <net-file value="melbcbd.net.xml"/>
        <route-files value="trips.xml"/>
    </input>

    <output>
        <output-file value="routes.rou.xml"/>
        <alternatives-output value="NUL"/>
    </output>

    <time>
        <begin value="0"/>
        <end value="120"/>
    </time>

    <report>
        <no-warnings value="true"/>
        <ignore-errors value="true"/>
        <no-step-log value="true"/>
    </report>

</configuration>
-->

<routes xmlns:xsi="http://www.w3.org/2001/XMLSchema-instance" xsi:noNamespaceSchemaLocation="http://sumo.dlr.de/xsd/routes_file.xsd">
    <vehicle id="0" depart="0.00">
        <route edges="-E4 -E2"/>
    </vehicle>
    <vehicle id="1" depart="36.00">
        <route edges="-E3 -E2"/>
    </vehicle>
    <vehicle id="2" depart="72.00">
        <route edges="-E4 E3"/>
    </vehicle>
</routes>
